Circuit: * C:\Users\Ethan\Desktop\CAD\KiCAD\ENGR357\engr357-receiver-design\spice\BPF_monte_carlo.asc

WARNING: Node N003 is floating.
WARNING: Node N004 is floating.
WARNING: Node N009 is floating.

.step n=1
.step n=2
.step n=3
.step n=4
.step n=5
.step n=6
.step n=7
.step n=8
.step n=9
.step n=10
.step n=11
.step n=12
.step n=13
.step n=14
.step n=15
.step n=16
.step n=17
.step n=18
.step n=19
.step n=20
.step n=21
.step n=22
.step n=23
.step n=24
.step n=25
.step n=26
.step n=27
.step n=28
.step n=29
.step n=30
.step n=31
.step n=32
.step n=33
.step n=34
.step n=35
.step n=36
.step n=37
.step n=38
.step n=39
.step n=40
.step n=41
.step n=42
.step n=43
.step n=44
.step n=45
.step n=46
.step n=47
.step n=48
.step n=49
.step n=50
.step n=51
.step n=52
.step n=53
.step n=54
.step n=55
.step n=56
.step n=57
.step n=58
.step n=59
.step n=60
.step n=61
.step n=62
.step n=63
.step n=64
.step n=65
.step n=66
.step n=67
.step n=68
.step n=69
.step n=70
.step n=71
.step n=72
.step n=73
.step n=74
.step n=75
.step n=76
.step n=77
.step n=78
.step n=79
.step n=80
.step n=81
.step n=82
.step n=83
.step n=84
.step n=85
.step n=86
.step n=87
.step n=88
.step n=89
.step n=90
.step n=91
.step n=92
.step n=93
.step n=94
.step n=95
.step n=96
.step n=97
.step n=98
.step n=99
.step n=100
.step n=101
.step n=102
.step n=103
.step n=104
.step n=105
.step n=106
.step n=107
.step n=108
.step n=109
.step n=110
.step n=111
.step n=112
.step n=113
.step n=114
.step n=115
.step n=116
.step n=117
.step n=118
.step n=119
.step n=120
.step n=121
.step n=122
.step n=123
.step n=124
.step n=125
.step n=126
.step n=127
.step n=128
.step n=129
.step n=130
.step n=131
.step n=132
.step n=133
.step n=134
.step n=135
.step n=136
.step n=137
.step n=138
.step n=139
.step n=140
.step n=141
.step n=142
.step n=143
.step n=144
.step n=145
.step n=146
.step n=147
.step n=148
.step n=149
.step n=150
.step n=151
.step n=152
.step n=153
.step n=154
.step n=155
.step n=156
.step n=157
.step n=158
.step n=159
.step n=160
.step n=161
.step n=162
.step n=163
.step n=164
.step n=165
.step n=166
.step n=167
.step n=168
.step n=169
.step n=170
.step n=171
.step n=172
.step n=173
.step n=174
.step n=175
.step n=176
.step n=177
.step n=178
.step n=179
.step n=180
.step n=181
.step n=182
.step n=183
.step n=184
.step n=185
.step n=186
.step n=187
.step n=188
.step n=189
.step n=190
.step n=191
.step n=192
.step n=193
.step n=194
.step n=195
.step n=196
.step n=197
.step n=198
.step n=199
.step n=200
.step n=201
.step n=202
.step n=203
.step n=204
.step n=205
.step n=206
.step n=207
.step n=208
.step n=209
.step n=210
.step n=211
.step n=212
.step n=213
.step n=214
.step n=215
.step n=216
.step n=217
.step n=218
.step n=219
.step n=220
.step n=221
.step n=222
.step n=223
.step n=224
.step n=225
.step n=226
.step n=227
.step n=228
.step n=229
.step n=230
.step n=231
.step n=232
.step n=233
.step n=234
.step n=235
.step n=236
.step n=237
.step n=238
.step n=239
.step n=240
.step n=241
.step n=242
.step n=243
.step n=244
.step n=245
.step n=246
.step n=247
.step n=248
.step n=249
.step n=250
.step n=251
.step n=252
.step n=253
.step n=254
.step n=255
.step n=256
.step n=257
.step n=258
.step n=259
.step n=260
.step n=261
.step n=262
.step n=263
.step n=264
.step n=265
.step n=266
.step n=267
.step n=268
.step n=269
.step n=270
.step n=271
.step n=272
.step n=273
.step n=274
.step n=275
.step n=276
.step n=277
.step n=278
.step n=279
.step n=280
.step n=281
.step n=282
.step n=283
.step n=284
.step n=285
.step n=286
.step n=287
.step n=288
.step n=289
.step n=290
.step n=291
.step n=292
.step n=293
.step n=294
.step n=295
.step n=296
.step n=297
.step n=298
.step n=299
.step n=300

Date: Tue Feb 20 01:04:23 2024
Total elapsed time: 33.985 seconds.

tnom = 27
temp = 27
method = trap
totiter = 0
traniter = 0
tranpoints = 0
accept = 0
rejected = 0
matrix size = 33
fillins = 20
solver = Normal

