Circuit: * C:\Users\beagl\OneDrive\Documents\College Classes\ENGR357 - Engineering Electronics 2\engr357-receiver-design\spice\Differential_Amp_test.asc

WARNING: Less than two connections to node 00.  This node is used by V1.
WARNING: Less than two connections to node 11.  This node is used by V3.
Direct Newton iteration failed to find .op point.  (Use ".option noopiter" to skip.)
Starting Gmin stepping
Gmin = 10
Gmin = 1.07374
Gmin = 0.115292
Gmin = 0.0123794
Gmin = 0.00132923
Gmin = 0.000142725
Gmin = 1.5325e-005
Gmin = 1.6455e-006
Gmin = 1.76685e-007
Gmin = 1.89714e-008
Gmin = 2.03704e-009
Gmin = 2.18725e-010
Gmin = 2.34854e-011
Gmin = 2.52173e-012
Gmin = 2.70769e-013
Gmin = 0
Gmin stepping succeeded in finding the operating point.




Date: Tue Mar 19 03:54:47 2024
Total elapsed time: 0.257 seconds.

tnom = 27
temp = 27
method = trap
totiter = 642
traniter = 0
tranpoints = 0
accept = 0
rejected = 0
matrix size = 125
fillins = 127
solver = Normal
Matrix Compiler1:     638 opcodes
Matrix Compiler2: 11.38 KB object code size  0.8/1.7/[0.5]

