Circuit: * C:\Users\beagl\OneDrive\Documents\College Classes\ENGR357 - Engineering Electronics 2\ENGR357_Receiver_Design\engr357-receiver-design\spice\OpAmp_impedance_matching.asc

WARNING: Less than two connections to node NC_01.  This node is used by V2.
Direct Newton iteration failed to find .op point.  (Use ".option noopiter" to skip.)
Starting Gmin stepping
Gmin = 10
Gmin = 1.07374
Gmin = 0.115292
Gmin = 0.0123794
Gmin = 0.00132923
Gmin = 0.000142725
Gmin = 1.5325e-005
Gmin = 1.6455e-006
Gmin = 1.76685e-007
Gmin = 1.89714e-008
Gmin = 2.03704e-009
Gmin = 2.18725e-010
Gmin = 2.34854e-011
Gmin = 2.52173e-012
Gmin = 2.70769e-013
Gmin = 0
Gmin stepping succeeded in finding the operating point.



Measurement "vout_max" FAIL'ed

Measurement "vout_min" FAIL'ed

Measurement "vout_vpp" FAIL'ed
vin_max: MAX(v(vin))=(-83.8115dB,17.5538°) FROM 1000 TO 1.5e+007
vin_min: MIN(v(vin))=(-86.6589dB,0.00246488°) FROM 1000 TO 1.5e+007
vin_vpp: vin_max-vin_min=(-92.1916dB,52.3161°)

Measurement "amp_gain" FAIL'ed


Date: Thu Feb 15 13:40:42 2024
Total elapsed time: 0.383 seconds.

tnom = 27
temp = 27
method = trap
totiter = 719
traniter = 0
tranpoints = 0
accept = 0
rejected = 0
matrix size = 239
fillins = 307
solver = Normal
Matrix Compiler1:    1331 opcodes
Matrix Compiler2: 23.33 KB object code size  2.0/3.5/[1.6]

