Circuit: * C:\Users\beagl\OneDrive\Documents\College Classes\ENGR357 - Engineering Electronics 2\engr357-receiver-design\spice\Tayloe_test.asc

Direct Newton iteration failed to find .op point.  (Use ".option noopiter" to skip.)
Starting Gmin stepping
Gmin = 10
Gmin = 1.07374
Gmin = 0.115292
Gmin = 0.0123794
Gmin = 0.00132923
Gmin = 0.000142725
Gmin = 1.5325e-005
Gmin = 1.6455e-006
Gmin = 1.76685e-007
Gmin = 1.89714e-008
Gmin = 2.03704e-009
Gmin = 2.18725e-010
Gmin = 2.34854e-011
Gmin = 2.52173e-012
Gmin = 2.70769e-013
Gmin = 0
Gmin stepping succeeded in finding the operating point.

Heightened Def Con from 4.68451e-007 to 4.68451e-007
Heightened Def Con from 4.68451e-007 to 4.68451e-007
Heightened Def Con from 4.68451e-007 to 4.68451e-007
Heightened Def Con from 6.10394e-007 to 6.10394e-007
Heightened Def Con from 6.10394e-007 to 6.10394e-007
Heightened Def Con from 6.10394e-007 to 6.10394e-007
Heightened Def Con from 6.10394e-007 to 6.10394e-007
Heightened Def Con from 6.10394e-007 to 6.10394e-007
Heightened Def Con from 6.10394e-007 to 6.10394e-007
Heightened Def Con from 6.10394e-007 to 6.10394e-007
Heightened Def Con from 6.10394e-007 to 6.10394e-007
Heightened Def Con from 6.10394e-007 to 6.10394e-007
Heightened Def Con from 6.10394e-007 to 6.10394e-007
Heightened Def Con from 6.10394e-007 to 6.10394e-007
Heightened Def Con from 6.10394e-007 to 6.10398e-007
Heightened Def Con from 6.53389e-007 to 6.53389e-007
Heightened Def Con from 6.53389e-007 to 6.53389e-007
Heightened Def Con from 6.53389e-007 to 6.53389e-007
Heightened Def Con from 6.53389e-007 to 6.53389e-007
Heightened Def Con from 6.53389e-007 to 6.53389e-007
Heightened Def Con from 6.53389e-007 to 6.53389e-007
Heightened Def Con from 6.53389e-007 to 6.53389e-007
Heightened Def Con from 6.70208e-007 to 6.70208e-007
Heightened Def Con from 6.70208e-007 to 6.70208e-007
Heightened Def Con from 6.70208e-007 to 6.70208e-007
Heightened Def Con from 6.70208e-007 to 6.70208e-007
Heightened Def Con from 6.70208e-007 to 6.70208e-007
Heightened Def Con from 6.70208e-007 to 6.70208e-007
Heightened Def Con from 6.70208e-007 to 6.70208e-007
Heightened Def Con from 6.70208e-007 to 6.70208e-007
Heightened Def Con from 6.70208e-007 to 6.70208e-007
Heightened Def Con from 6.70208e-007 to 6.70208e-007
Heightened Def Con from 6.70208e-007 to 6.70208e-007
Heightened Def Con from 6.70208e-007 to 6.70208e-007
Heightened Def Con from 6.70208e-007 to 6.70208e-007
Heightened Def Con from 6.70208e-007 to 6.70208e-007
Heightened Def Con from 6.70208e-007 to 6.70208e-007
Heightened Def Con from 6.70208e-007 to 6.70208e-007
Heightened Def Con from 6.70208e-007 to 6.70208e-007
Heightened Def Con from 6.70208e-007 to 6.70208e-007
Heightened Def Con from 6.70208e-007 to 6.70208e-007
Heightened Def Con from 6.70208e-007 ++++++++++++++++++++to 6.70349e-007
Heightened Def Con from 6.70349e-007 +++++++++++to 6.70349e-007
Heightened Def Con from 6.70349e-007 +++++++to 6.70349e-007
Heightened Def Con from 6.70349e-007 to 6.70349e-007
Heightened Def Con from 6.70349e-007 to 6.70349e-007
Heightened Def Con from 6.70349e-007 to 6.70349e-007
Heightened Def Con from 6.70349e-007 to 6.70349e-007
Heightened Def Con from 6.70349e-007 to 6.70349e-007
Heightened Def Con from 6.70349e-007 to 6.70349e-007
Heightened Def Con from 6.70349e-007 to 6.70349e-007
Heightened Def Con from 6.70349e-007 to 6.70349e-007
Heightened Def Con from 6.70349e-007 to 6.70349e-007
Heightened Def Con from 6.70349e-007 to 6.70349e-007
Heightened Def Con from 6.70349e-007 to 6.70349e-007
Heightened Def Con from 6.70349e-007 to 6.70349e-007
Heightened Def Con from 6.70349e-007 to 6.70349e-007
Heightened Def Con from 6.70349e-007 to 6.70349e-007
Heightened Def Con from 6.70349e-007 to 6.70349e-007
Heightened Def Con from 6.70349e-007 to 6.70349e-007
Heightened Def Con from 6.70349e-007 to 6.70349e-007
Heightened Def Con from 6.70349e-007 to 6.70349e-007
Heightened Def Con from 6.70349e-007 to 6.70349e-007
Heightened Def Con from 6.70357e-007 to 6.70357e-007
Heightened Def Con from 6.70357e-007 +to 6.70357e-007
Heightened Def Con from 6.70357e-007 to 6.70357e-007
Heightened Def Con from 6.70357e-007 ++++++++++++++++++++to 6.70373e-007
Heightened Def Con from 6.70373e-007 ++++++++++++to 6.70375e-007
Heightened Def Con from 6.70375e-007 ++++++++++++to 6.70377e-007
Heightened Def Con from 6.70377e-007 ++++++++++++to 6.70377e-007
Heightened Def Con from 6.70377e-007 ++++++++++++to 6.70377e-007
Heightened Def Con from 6.70377e-007 ++++++++++++to 6.70377e-007
Heightened Def Con from 6.70377e-007 ++++++++++++to 6.70377e-007
Heightened Def Con from 6.70377e-007 ++++++++++++to 6.70377e-007
Heightened Def Con from 6.70377e-007 ++++++++++++to 6.70377e-007
Heightened Def Con from 6.70377e-007 ++++++++++++to 6.70377e-007
Heightened Def Con from 6.70377e-007 ++++++++++++to 6.70377e-007
Heightened Def Con from 6.70377e-007 ++++++++++++to 6.70377e-007
Heightened Def Con from 6.70377e-007 ++++++++++++to 6.70377e-007
Heightened Def Con from 6.70377e-007 ++++++++++++to 6.70377e-007
Heightened Def Con from 6.70377e-007 +++++++++++to 6.70377e-007
Heightened Def Con from 6.83492e-007 to 6.83492e-007
Heightened Def Con from 6.83492e-007 to 6.83492e-007
Heightened Def Con from 6.83492e-007 to 6.83492e-007
Heightened Def Con from 7.2153e-007 to 7.2153e-007
Heightened Def Con from 7.2153e-007 to 7.2153e-007
Heightened Def Con from 7.2153e-007 to 7.2153e-007
Heightened Def Con from 7.2153e-007 to 7.2153e-007
Heightened Def Con from 7.2153e-007 to 7.2153e-007
Heightened Def Con from 7.2153e-007 to 7.2153e-007
Heightened Def Con from 7.2153e-007 to 7.2153e-007
Heightened Def Con from 7.2153e-007 to 7.2153e-007
Heightened Def Con from 7.2153e-007 to 7.2153e-007
Heightened Def Con from 7.2153e-007 to 7.2153e-007
Heightened Def Con from 7.2153e-007 to 7.2153e-007
Heightened Def Con from 7.2153e-007 to 7.2153e-007
Heightened Def Con from 7.2153e-007 to 7.2153e-007
Heightened Def Con from 7.2153e-007 to 7.2153e-007
Heightened Def Con from 7.2153e-007 to 7.2153e-007
Heightened Def Con from 7.2153e-007 to 7.2153e-007
Heightened Def Con from 7.2153e-007 to 7.2153e-007
Heightened Def Con from 7.2153e-007 to 7.2153e-007
Heightened Def Con from 7.2153e-007 to 7.2153e-007
Heightened Def Con from 7.2153e-007 to 7.2153e-007
Heightened Def Con from 7.2153e-007 to 7.2153e-007
Heightened Def Con from 7.2153e-007 to 7.2153e-007
Heightened Def Con from 7.2153e-007 to 7.2153e-007
Heightened Def Con from 7.2153e-007 to 7.2153e-007
Heightened Def Con from 7.2153e-007 to 7.2153e-007
Heightened Def Con from 7.2153e-007 to 7.2153e-007
Heightened Def Con from 7.2153e-007 to 7.2153e-007
Heightened Def Con from 7.2153e-007 to 7.2153e-007
Heightened Def Con from 7.2153e-007 to 7.2153e-007
Heightened Def Con from 7.2153e-007 to 7.2153e-007
Heightened Def Con from 7.2153e-007 to 7.2153e-007
Heightened Def Con from 7.2153e-007 to 7.2153e-007
Heightened Def Con from 7.2153e-007 to 7.2153e-007
Heightened Def Con from 7.2153e-007 to 7.2153e-007
Heightened Def Con from 7.2153e-007 to 7.2153e-007
Heightened Def Con from 7.2153e-007 to 7.2153e-007
Heightened Def Con from 7.2153e-007 to 7.2153e-007
Heightened Def Con from 7.2153e-007 to 7.2153e-007
Heightened Def Con from 7.2153e-007 to 7.2153e-007
Heightened Def Con from 7.2153e-007 to 7.2153e-007
Heightened Def Con from 7.2153e-007 to 7.2153e-007
Heightened Def Con from 7.2153e-007 to 7.2153e-007
Heightened Def Con from 7.2153e-007 to 7.2153e-007
Heightened Def Con from 7.2153e-007 to 7.2153e-007
Heightened Def Con from 7.2153e-007 to 7.2153e-007
Heightened Def Con from 7.2153e-007 to 7.2153e-007
Heightened Def Con from 7.2153e-007 to 7.2153e-007
Heightened Def Con from 7.2153e-007 to 7.2153e-007
Heightened Def Con from 7.2153e-007 to 7.2153e-007
Heightened Def Con from 7.2153e-007 to 7.2153e-007
Heightened Def Con from 7.2153e-007 to 7.2153e-007
Heightened Def Con from 7.2153e-007 to 7.2153e-007
Heightened Def Con from 7.2153e-007 to 7.2153e-007
Heightened Def Con from 7.2153e-007 to 7.2153e-007
Heightened Def Con from 7.2153e-007 to 7.2153e-007
Heightened Def Con from 7.2153e-007 to 7.2153e-007
Heightened Def Con from 7.2153e-007 to 7.2153e-007
Heightened Def Con from 7.2153e-007 to 7.2153e-007
Heightened Def Con from 7.2153e-007 to 7.2153e-007
Heightened Def Con from 7.2153e-007 to 7.2153e-007
Heightened Def Con from 7.2153e-007 to 7.2153e-007
Heightened Def Con from 7.2153e-007 to 7.2153e-007
Heightened Def Con from 7.2153e-007 to 7.2153e-007
Heightened Def Con from 7.2153e-007 to 7.2153e-007
Heightened Def Con from 7.2153e-007 to 7.2153e-007
Heightened Def Con from 7.2153e-007 to 7.2153e-007
Heightened Def Con from 7.2153e-007 to 7.2153e-007
Heightened Def Con from 7.2153e-007 to 7.2153e-007
Heightened Def Con from 7.2153e-007 to 7.2153e-007
Heightened Def Con from 7.2153e-007 to 7.2153e-007
Heightened Def Con from 7.2153e-007 to 7.2153e-007
Heightened Def Con from 7.2153e-007 to 7.2153e-007
Heightened Def Con from 7.2153e-007 to 7.2153e-007
Heightened Def Con from 7.2153e-007 to 7.2153e-007
Heightened Def Con from 7.2153e-007 to 7.2153e-007
Heightened Def Con from 7.2153e-007 to 7.2153e-007
Heightened Def Con from 7.2153e-007 to 7.2153e-007
Heightened Def Con from 7.2153e-007 to 7.2153e-007
Heightened Def Con from 7.2153e-007 to 7.2153e-007
Heightened Def Con from 7.2153e-007 to 7.2153e-007
Heightened Def Con from 7.2153e-007 to 7.2153e-007
Heightened Def Con from 7.2153e-007 to 7.2153e-007
Heightened Def Con from 7.2153e-007 to 7.2153e-007
Heightened Def Con from 7.2153e-007 to 7.2153e-007
Heightened Def Con from 7.2153e-007 to 7.2153e-007
Heightened Def Con from 7.2153e-007 to 7.2153e-007
Heightened Def Con from 7.2153e-007 to 7.2153e-007
Heightened Def Con from 7.2153e-007 to 7.2153e-007
Heightened Def Con from 7.2153e-007 to 7.2153e-007
Heightened Def Con from 7.2153e-007 to 7.2153e-007
Heightened Def Con from 7.2153e-007 to 7.2153e-007
Heightened Def Con from 7.2153e-007 to 7.2153e-007
Heightened Def Con from 7.2153e-007 to 7.2153e-007
Heightened Def Con from 7.2153e-007 to 7.2153e-007
Heightened Def Con from 7.2153e-007 to 7.2153e-007
Heightened Def Con from 7.2153e-007 to 7.2153e-007
Heightened Def Con from 7.2153e-007 to 7.2153e-007
Heightened Def Con from 7.2153e-007 to 7.2153e-007
Heightened Def Con from 7.2153e-007 to 7.2153e-007
Heightened Def Con from 7.2153e-007 to 7.2153e-007
Heightened Def Con from 7.2153e-007 to 7.2153e-007
Heightened Def Con from 7.2153e-007 to 7.2153e-007
Heightened Def Con from 7.2153e-007 to 7.2153e-007
Heightened Def Con from 7.2153e-007 to 7.2153e-007
Heightened Def Con from 7.2153e-007 ++++++++++++++++++++to 7.21671e-007
Heightened Def Con from 7.21671e-007 +++++++++to 7.21671e-007
Heightened Def Con from 7.21671e-007 to 7.21671e-007
Heightened Def Con from 7.21671e-007 to 7.21671e-007
Heightened Def Con from 7.21671e-007 to 7.21671e-007
Heightened Def Con from 7.21671e-007 to 7.21671e-007
Heightened Def Con from 7.21671e-007 to 7.21671e-007
Heightened Def Con from 7.21671e-007 to 7.21671e-007
Heightened Def Con from 7.21671e-007 to 7.21671e-007
Heightened Def Con from 7.21671e-007 to 7.21671e-007
Heightened Def Con from 7.21671e-007 to 7.21671e-007
Heightened Def Con from 7.21671e-007 to 7.21671e-007
Heightened Def Con from 7.21671e-007 to 7.21671e-007
Heightened Def Con from 7.21671e-007 to 7.21671e-007
Heightened Def Con from 7.21671e-007 to 7.21671e-007
Heightened Def Con from 7.21671e-007 to 7.21671e-007
Heightened Def Con from 7.21671e-007 to 7.21671e-007
Heightened Def Con from 7.21671e-007 to 7.21671e-007
Heightened Def Con from 7.21671e-007 to 7.21671e-007
Heightened Def Con from 7.21671e-007 to 7.21671e-007
Heightened Def Con from 7.21671e-007 to 7.21671e-007
Heightened Def Con from 7.21671e-007 to 7.21671e-007
Heightened Def Con from 7.21671e-007 to 7.21671e-007
Heightened Def Con from 7.21671e-007 to 7.21671e-007
Heightened Def Con from 7.21671e-007 to 7.21671e-007
Heightened Def Con from 7.21671e-007 to 7.21671e-007
Heightened Def Con from 7.21671e-007 to 7.21671e-007
Heightened Def Con from 7.21676e-007 to 7.21676e-007
Heightened Def Con from 7.21676e-007 ++++++++++++++++++++to 7.21678e-007
Heightened Def Con from 7.21678e-007 +++++++++++++to 7.2168e-007
Heightened Def Con from 7.2168e-007 +++++++++++++to 7.21681e-007
Heightened Def Con from 7.21681e-007 +++++++++++++to 7.21681e-007
Heightened Def Con from 7.21681e-007 +++++++++++++to 7.21681e-007
Heightened Def Con from 7.21681e-007 +++++++++++++to 7.21681e-007
Heightened Def Con from 7.21681e-007 +++++++++++++to 7.21682e-007
Heightened Def Con from 7.21682e-007 +++++++++++++to 7.21682e-007
Heightened Def Con from 7.21682e-007 +++++++++++++to 7.21682e-007
Heightened Def Con from 7.21682e-007 +++++++++++++to 7.21682e-007
Heightened Def Con from 7.21682e-007 +++++++++++++to 7.21682e-007
Heightened Def Con from 7.21682e-007 +++++++++++++to 7.21682e-007
Heightened Def Con from 7.21682e-007 +++++++++++++to 7.21682e-007
Heightened Def Con from 7.21682e-007 +++++++++++++to 7.21682e-007
Heightened Def Con from 7.21682e-007 +++++++++++++to 7.21682e-007
Heightened Def Con from 7.21682e-007 +++++++++++++to 7.21682e-007
Heightened Def Con from 7.21682e-007 +++++++++++++to 7.21682e-007
Heightened Def Con from 7.21682e-007 +++++++++++++to 7.21682e-007
Heightened Def Con from 7.21682e-007 +++++++++++++to 7.21682e-007
Heightened Def Con from 7.21682e-007 ++++++++++++to 7.21682e-007
Heightened Def Con from 7.21682e-007 ++to 7.217e-007
Heightened Def Con from 7.88454e-007 to 7.88454e-007
Heightened Def Con from 7.88454e-007 to 7.88454e-007
Heightened Def Con from 7.88455e-007 to 7.88455e-007
Heightened Def Con from 7.88455e-007 to 7.88455e-007
Heightened Def Con from 7.88455e-007 to 7.88455e-007
Heightened Def Con from 7.88455e-007 ++++++++++++++++++++to 7.88582e-007
Heightened Def Con from 7.88582e-007 ++++++++++to 7.88582e-007
Heightened Def Con from 7.88582e-007 +++++++++to 7.88582e-007
Heightened Def Con from 7.88582e-007 ++++++++to 7.88582e-007
Heightened Def Con from 7.88582e-007 to 7.88582e-007
Heightened Def Con from 7.88582e-007 to 7.88582e-007
Heightened Def Con from 7.88582e-007 to 7.88582e-007
Heightened Def Con from 7.88582e-007 to 7.88582e-007
Heightened Def Con from 7.88582e-007 to 7.88582e-007
Heightened Def Con from 7.88582e-007 to 7.88582e-007
Heightened Def Con from 7.88582e-007 to 7.88582e-007
Heightened Def Con from 7.88582e-007 to 7.88582e-007
Heightened Def Con from 7.88582e-007 to 7.88582e-007
Heightened Def Con from 7.88582e-007 to 7.88582e-007
Heightened Def Con from 7.88582e-007 to 7.88582e-007
Heightened Def Con from 7.88582e-007 to 7.88582e-007
Heightened Def Con from 7.88582e-007 to 7.88582e-007
Heightened Def Con from 7.88582e-007 to 7.88582e-007
Heightened Def Con from 7.88582e-007 to 7.88582e-007
Heightened Def Con from 7.88582e-007 to 7.88582e-007
Heightened Def Con from 7.88582e-007 to 7.88582e-007
Heightened Def Con from 7.88582e-007 to 7.88582e-007
Heightened Def Con from 7.88582e-007 to 7.88582e-007
Heightened Def Con from 7.88582e-007 to 7.88582e-007
Heightened Def Con from 7.88582e-007 to 7.88582e-007
Heightened Def Con from 7.88582e-007 to 7.88582e-007
Heightened Def Con from 7.88582e-007 to 7.88582e-007
Heightened Def Con from 7.88582e-007 to 7.88582e-007
Heightened Def Con from 7.88582e-007 to 7.88582e-007
Heightened Def Con from 7.88582e-007 to 7.88582e-007
Heightened Def Con from 7.88582e-007 to 7.88582e-007
Heightened Def Con from 7.88582e-007 to 7.88582e-007
Heightened Def Con from 7.8859e-007 to 7.8859e-007
Heightened Def Con from 7.8859e-007 to 7.8859e-007
Heightened Def Con from 7.8859e-007 to 7.8859e-007
Heightened Def Con from 7.8859e-007 to 7.8859e-007
Heightened Def Con from 7.8859e-007 to 7.8859e-007
Heightened Def Con from 7.8859e-007 to 7.8859e-007
Heightened Def Con from 7.8859e-007 to 7.8859e-007
Heightened Def Con from 7.8859e-007 to 7.8859e-007
Heightened Def Con from 7.8859e-007 to 7.8859e-007
Heightened Def Con from 7.8859e-007 to 7.8859e-007
Heightened Def Con from 7.8859e-007 to 7.8859e-007
Heightened Def Con from 7.8859e-007 to 7.8859e-007
Heightened Def Con from 7.8859e-007 to 7.8859e-007
Heightened Def Con from 7.8859e-007 to 7.8859e-007
Heightened Def Con from 7.8859e-007 to 7.8859e-007
Heightened Def Con from 7.8859e-007 to 7.8859e-007
Heightened Def Con from 7.8859e-007 to 7.8859e-007
Heightened Def Con from 7.8859e-007 to 7.8859e-007
Heightened Def Con from 7.8859e-007 to 7.8859e-007
Heightened Def Con from 7.8859e-007 to 7.8859e-007
Heightened Def Con from 7.8859e-007 to 7.8859e-007
Heightened Def Con from 7.8859e-007 to 7.8859e-007
Heightened Def Con from 7.8859e-007 to 7.8859e-007
Heightened Def Con from 7.8859e-007 to 7.8859e-007
Heightened Def Con from 7.8859e-007 to 7.8859e-007
Heightened Def Con from 7.8859e-007 to 7.8859e-007
Heightened Def Con from 7.8859e-007 to 7.8859e-007
Heightened Def Con from 7.8859e-007 to 7.8859e-007
Heightened Def Con from 7.8859e-007 to 7.8859e-007
Heightened Def Con from 7.8859e-007 to 7.8859e-007
Heightened Def Con from 7.8859e-007 to 7.8859e-007
Heightened Def Con from 7.8859e-007 to 7.8859e-007
Heightened Def Con from 7.8859e-007 to 7.8859e-007
Heightened Def Con from 7.8859e-007 to 7.8859e-007
Heightened Def Con from 7.8859e-007 to 7.8859e-007
Heightened Def Con from 7.8859e-007 to 7.8859e-007
Heightened Def Con from 7.8859e-007 to 7.8859e-007
Heightened Def Con from 7.8859e-007 to 7.8859e-007
Heightened Def Con from 7.8859e-007 to 7.8859e-007
Heightened Def Con from 7.8859e-007 to 7.8859e-007
Heightened Def Con from 7.8859e-007 to 7.8859e-007
Heightened Def Con from 7.8859e-007 to 7.8859e-007
Heightened Def Con from 7.8859e-007 to 7.8859e-007
Heightened Def Con from 7.8859e-007 to 7.8859e-007
Heightened Def Con from 7.8859e-007 to 7.8859e-007
Heightened Def Con from 7.8859e-007 to 7.8859e-007
Heightened Def Con from 7.8859e-007 to 7.8859e-007
Heightened Def Con from 7.8859e-007 to 7.8859e-007
Heightened Def Con from 7.8859e-007 to 7.8859e-007
Heightened Def Con from 7.8859e-007 to 7.8859e-007
Heightened Def Con from 7.8859e-007 to 7.8859e-007
Heightened Def Con from 7.8859e-007 to 7.8859e-007
Heightened Def Con from 7.8859e-007 to 7.8859e-007
Heightened Def Con from 7.8859e-007 to 7.8859e-007
Heightened Def Con from 7.8859e-007 to 7.8859e-007
Heightened Def Con from 7.8859e-007 to 7.8859e-007
Heightened Def Con from 7.8859e-007 to 7.8859e-007
Heightened Def Con from 7.8859e-007 to 7.8859e-007
Heightened Def Con from 7.8859e-007 to 7.8859e-007
Heightened Def Con from 7.8859e-007 to 7.8859e-007
Heightened Def Con from 7.8859e-007 to 7.8859e-007
Heightened Def Con from 7.8859e-007 to 7.8859e-007
Heightened Def Con from 7.8859e-007 to 7.8859e-007
Heightened Def Con from 7.8859e-007 to 7.8859e-007
Heightened Def Con from 7.8859e-007 to 7.8859e-007
Heightened Def Con from 7.8859e-007 to 7.8859e-007
Heightened Def Con from 7.8859e-007 to 7.8859e-007
Heightened Def Con from 7.8859e-007 to 7.8859e-007
Heightened Def Con from 7.8859e-007 to 7.8859e-007
Heightened Def Con from 7.8859e-007 to 7.8859e-007
Heightened Def Con from 7.8859e-007 to 7.8859e-007
Heightened Def Con from 7.8859e-007 to 7.8859e-007
Heightened Def Con from 7.8859e-007 to 7.8859e-007
Heightened Def Con from 7.8859e-007 to 7.8859e-007
Heightened Def Con from 7.8859e-007 to 7.8859e-007
Heightened Def Con from 7.8859e-007 to 7.8859e-007
Heightened Def Con from 7.8859e-007 to 7.8859e-007
Heightened Def Con from 7.8859e-007 to 7.8859e-007
Heightened Def Con from 7.8859e-007 to 7.8859e-007
Heightened Def Con from 7.8859e-007 to 7.8859e-007
Heightened Def Con from 7.8859e-007 to 7.8859e-007
Heightened Def Con from 7.8859e-007 to 7.8859e-007
Heightened Def Con from 7.8859e-007 to 7.8859e-007
Heightened Def Con from 7.8859e-007 to 7.8859e-007
Heightened Def Con from 7.8859e-007 to 7.8859e-007
Heightened Def Con from 7.8859e-007 to 7.8859e-007
Heightened Def Con from 7.8859e-007 to 7.8859e-007
Heightened Def Con from 7.8859e-007 to 7.8859e-007
Heightened Def Con from 7.8859e-007 to 7.8859e-007
Heightened Def Con from 7.8859e-007 to 7.8859e-007
Heightened Def Con from 7.8859e-007 to 7.8859e-007
Heightened Def Con from 7.8859e-007 to 7.8859e-007
Heightened Def Con from 7.8859e-007 to 7.8859e-007
Heightened Def Con from 7.8859e-007 to 7.8859e-007
Heightened Def Con from 7.8859e-007 to 7.8859e-007
Heightened Def Con from 7.8859e-007 to 7.8859e-007
Heightened Def Con from 7.8859e-007 to 7.8859e-007
Heightened Def Con from 7.8859e-007 to 7.8859e-007
Heightened Def Con from 7.8859e-007 to 7.8859e-007
Heightened Def Con from 7.8859e-007 to 7.8859e-007
Heightened Def Con from 7.8859e-007 to 7.8859e-007
Heightened Def Con from 7.8859e-007 to 7.8859e-007
Heightened Def Con from 7.8859e-007 to 7.8859e-007
Heightened Def Con from 7.8859e-007 to 7.8859e-007
Heightened Def Con from 7.8859e-007 to 7.8859e-007
Heightened Def Con from 7.8859e-007 to 7.8859e-007
Heightened Def Con from 7.8859e-007 to 7.8859e-007
Heightened Def Con from 7.8859e-007 to 7.8859e-007
Heightened Def Con from 7.8859e-007 to 7.8859e-007
Heightened Def Con from 7.8859e-007 to 7.8859e-007
Heightened Def Con from 7.8859e-007 to 7.8859e-007
Heightened Def Con from 7.8859e-007 to 7.8859e-007
Heightened Def Con from 7.8859e-007 to 7.8859e-007
Heightened Def Con from 7.8859e-007 to 7.8859e-007
Heightened Def Con from 7.8859e-007 to 7.8859e-007
Heightened Def Con from 7.8859e-007 to 7.8859e-007
Heightened Def Con from 7.8859e-007 to 7.8859e-007
Heightened Def Con from 7.8859e-007 to 7.8859e-007
Heightened Def Con from 7.8859e-007 to 7.8859e-007
Heightened Def Con from 7.8859e-007 to 7.8859e-007
Heightened Def Con from 7.8859e-007 to 7.8859e-007
Heightened Def Con from 7.8859e-007 to 7.8859e-007
Heightened Def Con from 7.8859e-007 to 7.8859e-007
Heightened Def Con from 7.8859e-007 to 7.8859e-007
Heightened Def Con from 7.8859e-007 to 7.8859e-007
Heightened Def Con from 7.8859e-007 to 7.8859e-007
Heightened Def Con from 7.8859e-007 to 7.8859e-007
Heightened Def Con from 7.8859e-007 to 7.8859e-007
Heightened Def Con from 7.8859e-007 to 7.8859e-007
Heightened Def Con from 7.8859e-007 to 7.8859e-007
Heightened Def Con from 7.8859e-007 to 7.8859e-007
Heightened Def Con from 7.8859e-007 to 7.8859e-007
Heightened Def Con from 7.8859e-007 to 7.8859e-007
Heightened Def Con from 7.8859e-007 to 7.8859e-007
Heightened Def Con from 7.8859e-007 to 7.8859e-007
Heightened Def Con from 7.8859e-007 to 7.8859e-007
Heightened Def Con from 7.8859e-007 to 7.8859e-007
Heightened Def Con from 7.8859e-007 to 7.8859e-007
Heightened Def Con from 7.8859e-007 to 7.8859e-007
Heightened Def Con from 7.8859e-007 to 7.8859e-007
Heightened Def Con from 7.8859e-007 to 7.8859e-007
Heightened Def Con from 7.8859e-007 to 7.8859e-007
Heightened Def Con from 7.8859e-007 to 7.8859e-007
Heightened Def Con from 7.8859e-007 to 7.8859e-007
Heightened Def Con from 7.8859e-007 to 7.8859e-007
Heightened Def Con from 7.8859e-007 to 7.8859e-007
Heightened Def Con from 7.8859e-007 to 7.8859e-007
Heightened Def Con from 7.8859e-007 to 7.8859e-007
Heightened Def Con from 7.8859e-007 to 7.8859e-007
Heightened Def Con from 7.8859e-007 to 7.8859e-007
Heightened Def Con from 7.8859e-007 to 7.8859e-007
Heightened Def Con from 7.8859e-007 to 7.8859e-007
Heightened Def Con from 7.8859e-007 to 7.8859e-007
Heightened Def Con from 7.8859e-007 to 7.8859e-007
Heightened Def Con from 7.8859e-007 to 7.8859e-007
Heightened Def Con from 7.8859e-007 to 7.8859e-007
Heightened Def Con from 7.8859e-007 to 7.8859e-007
Heightened Def Con from 7.8859e-007 to 7.8859e-007
Heightened Def Con from 7.8859e-007 to 7.8859e-007
Heightened Def Con from 7.8859e-007 to 7.8859e-007
Heightened Def Con from 7.8859e-007 to 7.8859e-007
Heightened Def Con from 7.8859e-007 to 7.8859e-007
Heightened Def Con from 7.8859e-007 to 7.8859e-007
Heightened Def Con from 7.8859e-007 to 7.8859e-007
Heightened Def Con from 7.8859e-007 to 7.8859e-007
Heightened Def Con from 7.8859e-007 to 7.8859e-007
Heightened Def Con from 7.8859e-007 to 7.8859e-007
Heightened Def Con from 7.8859e-007 to 7.8859e-007
Heightened Def Con from 7.8859e-007 to 7.8859e-007
Heightened Def Con from 7.8859e-007 to 7.8859e-007
Heightened Def Con from 7.8859e-007 to 7.8859e-007
Heightened Def Con from 7.8859e-007 to 7.8859e-007
Heightened Def Con from 7.8859e-007 to 7.8859e-007
Heightened Def Con from 7.8859e-007 to 7.8859e-007
Heightened Def Con from 7.8859e-007 to 7.8859e-007
Heightened Def Con from 7.8859e-007 to 7.8859e-007
Heightened Def Con from 7.8859e-007 to 7.8859e-007
Heightened Def Con from 7.8859e-007 to 7.8859e-007
Heightened Def Con from 7.8859e-007 to 7.8859e-007
Heightened Def Con from 7.8859e-007 to 7.8859e-007
Heightened Def Con from 7.8859e-007 to 7.8859e-007
Heightened Def Con from 7.8859e-007 to 7.8859e-007
Heightened Def Con from 7.8859e-007 to 7.8859e-007
Heightened Def Con from 7.8859e-007 to 7.8859e-007
Heightened Def Con from 7.8859e-007 to 7.8859e-007
Heightened Def Con from 7.8859e-007 to 7.8859e-007
Heightened Def Con from 7.8859e-007 to 7.8859e-007
Heightened Def Con from 7.8859e-007 to 7.8859e-007
Heightened Def Con from 7.8859e-007 to 7.8859e-007
Heightened Def Con from 7.8859e-007 to 7.8859e-007
Heightened Def Con from 7.8859e-007 to 7.8859e-007
Heightened Def Con from 7.8859e-007 to 7.8859e-007
Heightened Def Con from 7.8859e-007 to 7.8859e-007
Heightened Def Con from 7.8859e-007 to 7.8859e-007
Heightened Def Con from 7.8859e-007 to 7.8859e-007
Heightened Def Con from 7.8859e-007 to 7.8859e-007
Heightened Def Con from 7.8859e-007 to 7.8859e-007
Heightened Def Con from 7.8859e-007 to 7.8859e-007
Heightened Def Con from 7.8859e-007 to 7.8859e-007
Heightened Def Con from 7.8859e-007 to 7.8859e-007
Heightened Def Con from 7.8859e-007 to 7.8859e-007
Heightened Def Con from 7.8859e-007 to 7.8859e-007
Heightened Def Con from 7.8859e-007 to 7.8859e-007
Heightened Def Con from 7.8859e-007 to 7.8859e-007
Heightened Def Con from 7.8859e-007 to 7.8859e-007
Heightened Def Con from 7.8859e-007 to 7.8859e-007
Heightened Def Con from 7.8859e-007 to 7.8859e-007
Heightened Def Con from 7.8859e-007 to 7.8859e-007
Heightened Def Con from 7.8859e-007 to 7.8859e-007
Heightened Def Con from 7.8859e-007 to 7.8859e-007
Heightened Def Con from 7.8859e-007 to 7.8859e-007
Heightened Def Con from 7.8859e-007 to 7.8859e-007
Heightened Def Con from 7.8859e-007 to 7.8859e-007
Heightened Def Con from 7.8859e-007 to 7.8859e-007
Heightened Def Con from 7.8859e-007 to 7.8859e-007
Heightened Def Con from 7.8859e-007 to 7.8859e-007
Heightened Def Con from 7.8859e-007 to 7.8859e-007
Heightened Def Con from 7.8859e-007 to 7.8859e-007
Heightened Def Con from 7.8859e-007 to 7.8859e-007
Heightened Def Con from 7.8859e-007 to 7.8859e-007
Heightened Def Con from 7.8859e-007 to 7.8859e-007
Heightened Def Con from 7.8859e-007 to 7.8859e-007
Heightened Def Con from 7.8859e-007 to 7.8859e-007
Heightened Def Con from 7.8859e-007 to 7.8859e-007
Heightened Def Con from 7.8859e-007 to 7.8859e-007
Heightened Def Con from 7.8859e-007 to 7.8859e-007
Heightened Def Con from 7.8859e-007 to 7.8859e-007
Heightened Def Con from 7.8859e-007 to 7.8859e-007
Heightened Def Con from 7.8859e-007 to 7.8859e-007
Heightened Def Con from 7.8859e-007 to 7.8859e-007
Heightened Def Con from 7.8859e-007 to 7.8859e-007
Heightened Def Con from 7.8859e-007 to 7.8859e-007
Heightened Def Con from 7.8859e-007 to 7.8859e-007
Heightened Def Con from 7.8859e-007 to 7.8859e-007
Heightened Def Con from 7.8859e-007 to 7.8859e-007
Heightened Def Con from 7.8859e-007 to 7.8859e-007
Heightened Def Con from 7.8859e-007 to 7.8859e-007
Heightened Def Con from 7.8859e-007 to 7.8859e-007
Heightened Def Con from 7.8859e-007 to 7.8859e-007
Heightened Def Con from 7.8859e-007 to 7.8859e-007
Heightened Def Con from 7.8859e-007 to 7.8859e-007
Heightened Def Con from 7.8859e-007 to 7.8859e-007
Heightened Def Con from 7.8859e-007 to 7.8859e-007
Heightened Def Con from 7.8859e-007 to 7.8859e-007
Heightened Def Con from 7.8859e-007 to 7.8859e-007
Heightened Def Con from 7.8859e-007 to 7.8859e-007
Heightened Def Con from 7.8859e-007 to 7.8859e-007
Heightened Def Con from 7.8859e-007 to 7.8859e-007
Heightened Def Con from 7.8859e-007 to 7.8859e-007
Heightened Def Con from 7.8859e-007 to 7.8859e-007
Heightened Def Con from 7.8859e-007 to 7.8859e-007
Heightened Def Con from 7.8859e-007 to 7.8859e-007
Heightened Def Con from 7.8859e-007 to 7.8859e-007
Heightened Def Con from 7.8859e-007 to 7.8859e-007
Heightened Def Con from 7.8859e-007 to 7.8859e-007
Heightened Def Con from 7.8859e-007 to 7.8859e-007
Heightened Def Con from 7.8859e-007 to 7.8859e-007
Heightened Def Con from 7.8859e-007 to 7.8859e-007
Heightened Def Con from 7.8859e-007 to 7.8859e-007
Heightened Def Con from 7.8859e-007 to 7.8859e-007
Heightened Def Con from 7.8859e-007 to 7.8859e-007
Heightened Def Con from 7.8859e-007 to 7.8859e-007
Heightened Def Con from 7.8859e-007 to 7.8859e-007
Heightened Def Con from 7.8859e-007 to 7.8859e-007
Heightened Def Con from 7.8859e-007 to 7.8859e-007
Heightened Def Con from 7.8859e-007 to 7.8859e-007
Heightened Def Con from 7.8859e-007 to 7.8859e-007
Heightened Def Con from 7.8859e-007 to 7.8859e-007
Heightened Def Con from 7.8859e-007 to 7.8859e-007
Heightened Def Con from 7.8859e-007 to 7.8859e-007
Heightened Def Con from 7.8859e-007 to 7.8859e-007
Heightened Def Con from 7.8859e-007 to 7.8859e-007
Heightened Def Con from 7.8859e-007 to 7.8859e-007
Heightened Def Con from 7.8859e-007 to 7.8859e-007
Heightened Def Con from 7.8859e-007 to 7.8859e-007
Heightened Def Con from 7.8859e-007 to 7.8859e-007
Heightened Def Con from 7.8859e-007 to 7.8859e-007
Heightened Def Con from 7.8859e-007 to 7.8859e-007
Heightened Def Con from 7.8859e-007 to 7.8859e-007
Heightened Def Con from 7.8859e-007 to 7.8859e-007
Heightened Def Con from 7.8859e-007 to 7.8859e-007
Heightened Def Con from 7.8859e-007 to 7.8859e-007
Heightened Def Con from 7.8859e-007 to 7.8859e-007
Heightened Def Con from 7.8859e-007 to 7.8859e-007
Heightened Def Con from 7.8859e-007 to 7.8859e-007
Heightened Def Con from 7.8859e-007 to 7.8859e-007
Heightened Def Con from 7.8859e-007 to 7.8859e-007
Heightened Def Con from 7.8859e-007 to 7.8859e-007
Heightened Def Con from 7.8859e-007 to 7.8859e-007
Heightened Def Con from 7.8859e-007 to 7.8859e-007
Heightened Def Con from 7.8859e-007 to 7.8859e-007
Heightened Def Con from 7.8859e-007 to 7.8859e-007
Heightened Def Con from 7.8859e-007 to 7.8859e-007
Heightened Def Con from 7.8859e-007 to 7.8859e-007
Heightened Def Con from 7.8859e-007 to 7.8859e-007
Heightened Def Con from 7.8859e-007 to 7.8859e-007
Heightened Def Con from 7.8859e-007 to 7.8859e-007
Heightened Def Con from 7.8859e-007 to 7.8859e-007
Heightened Def Con from 7.8859e-007 to 7.8859e-007
Heightened Def Con from 7.8859e-007 to 7.8859e-007
Heightened Def Con from 7.8859e-007 to 7.8859e-007
Heightened Def Con from 7.8859e-007 to 7.8859e-007
Heightened Def Con from 7.8859e-007 to 7.8859e-007
Heightened Def Con from 7.8859e-007 to 7.8859e-007
Heightened Def Con from 7.8859e-007 to 7.8859e-007
Heightened Def Con from 7.8859e-007 to 7.8859e-007
Heightened Def Con from 7.8859e-007 to 7.8859e-007
Heightened Def Con from 7.8859e-007 to 7.8859e-007
Heightened Def Con from 7.8859e-007 to 7.8859e-007
Heightened Def Con from 7.8859e-007 to 7.8859e-007
Heightened Def Con from 7.8859e-007 to 7.8859e-007
Heightened Def Con from 7.8859e-007 to 7.8859e-007
Heightened Def Con from 7.8859e-007 to 7.8859e-007
Heightened Def Con from 7.8859e-007 to 7.8859e-007
Heightened Def Con from 7.8859e-007 to 7.8859e-007
Heightened Def Con from 7.8859e-007 to 7.8859e-007
Heightened Def Con from 7.8859e-007 to 7.8859e-007
Heightened Def Con from 7.8859e-007 to 7.8859e-007
Heightened Def Con from 7.8859e-007 to 7.8859e-007
Heightened Def Con from 7.8859e-007 to 7.8859e-007
Heightened Def Con from 7.8859e-007 to 7.8859e-007
Heightened Def Con from 7.8859e-007 to 7.8859e-007
Heightened Def Con from 7.8859e-007 to 7.8859e-007
Heightened Def Con from 7.8859e-007 to 7.8859e-007
Heightened Def Con from 7.8859e-007 to 7.8859e-007
Heightened Def Con from 7.8859e-007 to 7.8859e-007
Heightened Def Con from 7.8859e-007 to 7.8859e-007
Heightened Def Con from 7.8859e-007 to 7.8859e-007
Heightened Def Con from 7.8859e-007 to 7.8859e-007
Heightened Def Con from 7.8859e-007 to 7.8859e-007
Heightened Def Con from 7.8859e-007 to 7.8859e-007
Heightened Def Con from 7.8859e-007 to 7.8859e-007
Heightened Def Con from 7.8859e-007 to 7.8859e-007
Heightened Def Con from 7.8859e-007 to 7.8859e-007
Heightened Def Con from 7.8859e-007 to 7.8859e-007
Heightened Def Con from 7.8859e-007 to 7.8859e-007
Heightened Def Con from 7.8859e-007 to 7.8859e-007
Heightened Def Con from 7.8859e-007 to 7.8859e-007
Heightened Def Con from 7.8859e-007 to 7.8859e-007
Heightened Def Con from 7.8859e-007 to 7.8859e-007
Heightened Def Con from 7.8859e-007 to 7.8859e-007
Heightened Def Con from 7.8859e-007 to 7.8859e-007
Heightened Def Con from 7.8859e-007 to 7.8859e-007
Heightened Def Con from 7.8859e-007 to 7.8859e-007
Heightened Def Con from 7.8859e-007 to 7.8859e-007
Heightened Def Con from 7.8859e-007 to 7.8859e-007
Heightened Def Con from 7.8859e-007 to 7.8859e-007
Heightened Def Con from 7.8859e-007 to 7.8859e-007
Heightened Def Con from 7.8859e-007 to 7.8859e-007
Heightened Def Con from 7.8859e-007 to 7.8859e-007
Heightened Def Con from 7.8859e-007 to 7.8859e-007
Heightened Def Con from 7.8859e-007 to 7.8859e-007
Heightened Def Con from 7.8859e-007 to 7.8859e-007
Heightened Def Con from 7.8859e-007 to 7.8859e-007
Heightened Def Con from 7.8859e-007 to 7.8859e-007
Heightened Def Con from 7.8859e-007 to 7.8859e-007
Heightened Def Con from 7.8859e-007 to 7.8859e-007
Heightened Def Con from 7.8859e-007 to 7.8859e-007
Heightened Def Con from 7.8859e-007 to 7.8859e-007
Heightened Def Con from 7.8859e-007 to 7.8859e-007
Heightened Def Con from 7.8859e-007 to 7.8859e-007
Heightened Def Con from 7.8859e-007 to 7.8859e-007
Heightened Def Con from 7.8859e-007 to 7.8859e-007
Heightened Def Con from 7.8859e-007 to 7.8859e-007
Heightened Def Con from 7.8859e-007 to 7.8859e-007
Heightened Def Con from 7.8859e-007 to 7.8859e-007
Heightened Def Con from 7.8859e-007 to 7.8859e-007
Heightened Def Con from 7.8859e-007 to 7.8859e-007
Heightened Def Con from 7.8859e-007 to 7.8859e-007
Heightened Def Con from 7.8859e-007 to 7.8859e-007
Heightened Def Con from 7.8859e-007 to 7.8859e-007
Heightened Def Con from 7.8859e-007 to 7.8859e-007
Heightened Def Con from 7.8859e-007 to 7.8859e-007
Heightened Def Con from 7.8859e-007 to 7.8859e-007
Heightened Def Con from 7.8859e-007 to 7.8859e-007
Heightened Def Con from 7.8859e-007 to 7.8859e-007
Heightened Def Con from 7.8859e-007 to 7.8859e-007
Heightened Def Con from 7.8859e-007 to 7.8859e-007
Heightened Def Con from 7.8859e-007 to 7.8859e-007
Heightened Def Con from 7.8859e-007 to 7.8859e-007
Heightened Def Con from 7.8859e-007 to 7.8859e-007
Heightened Def Con from 7.8859e-007 to 7.8859e-007
Heightened Def Con from 7.8859e-007 to 7.8859e-007
Heightened Def Con from 7.8859e-007 to 7.8859e-007
Heightened Def Con from 7.8859e-007 to 7.8859e-007
Heightened Def Con from 7.8859e-007 to 7.8859e-007
Heightened Def Con from 7.8859e-007 to 7.8859e-007
Heightened Def Con from 7.8859e-007 to 7.8859e-007
Heightened Def Con from 7.8859e-007 to 7.8859e-007
Heightened Def Con from 7.8859e-007 to 7.8859e-007
Heightened Def Con from 7.8859e-007 to 7.8859e-007
Heightened Def Con from 7.8859e-007 to 7.8859e-007
Heightened Def Con from 7.8859e-007 to 7.8859e-007
Heightened Def Con from 7.8859e-007 to 7.8859e-007
Heightened Def Con from 7.8859e-007 to 7.8859e-007
Heightened Def Con from 7.8859e-007 to 7.8859e-007
Heightened Def Con from 7.8859e-007 to 7.8859e-007
Heightened Def Con from 7.8859e-007 to 7.8859e-007
Heightened Def Con from 7.8859e-007 to 7.8859e-007
Heightened Def Con from 7.8859e-007 to 7.8859e-007
Heightened Def Con from 7.8859e-007 to 7.8859e-007
Heightened Def Con from 7.8859e-007 to 7.8859e-007
Heightened Def Con from 7.8859e-007 to 7.8859e-007
Heightened Def Con from 7.8859e-007 to 7.8859e-007
Heightened Def Con from 7.8859e-007 to 7.8859e-007
Heightened Def Con from 7.8859e-007 to 7.8859e-007
Heightened Def Con from 7.8859e-007 to 7.8859e-007
Heightened Def Con from 7.8859e-007 to 7.8859e-007
Heightened Def Con from 7.8859e-007 to 7.8859e-007
Heightened Def Con from 7.8859e-007 to 7.8859e-007
Heightened Def Con from 7.8859e-007 to 7.8859e-007
Heightened Def Con from 7.8859e-007 to 7.8859e-007
Heightened Def Con from 7.8859e-007 to 7.8859e-007
Heightened Def Con from 7.8859e-007 to 7.8859e-007
Heightened Def Con from 7.8859e-007 to 7.8859e-007
Heightened Def Con from 7.8859e-007 to 7.8859e-007
Heightened Def Con from 7.8859e-007 to 7.8859e-007
Heightened Def Con from 7.8859e-007 to 7.8859e-007
Heightened Def Con from 7.8859e-007 to 7.8859e-007
Heightened Def Con from 7.8859e-007 to 7.8859e-007
Heightened Def Con from 7.8859e-007 to 7.8859e-007
Heightened Def Con from 7.8859e-007 to 7.8859e-007
Heightened Def Con from 7.8859e-007 to 7.8859e-007
Heightened Def Con from 7.8859e-007 to 7.8859e-007
Heightened Def Con from 7.8859e-007 to 7.8859e-007
Heightened Def Con from 7.8859e-007 to 7.8859e-007
Heightened Def Con from 7.8859e-007 to 7.8859e-007
Heightened Def Con from 7.8859e-007 to 7.8859e-007
Heightened Def Con from 7.8859e-007 to 7.8859e-007
Heightened Def Con from 7.8859e-007 to 7.8859e-007
Heightened Def Con from 7.8859e-007 to 7.8859e-007
Heightened Def Con from 7.8859e-007 to 7.8859e-007
Heightened Def Con from 7.8859e-007 to 7.8859e-007
Heightened Def Con from 7.8859e-007 to 7.8859e-007
Heightened Def Con from 7.8859e-007 to 7.8859e-007
Heightened Def Con from 7.8859e-007 to 7.8859e-007
Heightened Def Con from 7.8859e-007 to 7.8859e-007
Heightened Def Con from 7.8859e-007 to 7.8859e-007
Heightened Def Con from 7.8859e-007 to 7.8859e-007
Heightened Def Con from 7.8859e-007 to 7.8859e-007
Heightened Def Con from 7.8859e-007 to 7.8859e-007
Heightened Def Con from 7.8859e-007 to 7.8859e-007
Heightened Def Con from 7.8859e-007 to 7.8859e-007
Heightened Def Con from 7.8859e-007 to 7.8859e-007
Heightened Def Con from 7.8859e-007 to 7.8859e-007
Heightened Def Con from 7.8859e-007 to 7.8859e-007
Heightened Def Con from 7.8859e-007 to 7.8859e-007
Heightened Def Con from 7.8859e-007 to 7.8859e-007
Heightened Def Con from 7.8859e-007 to 7.8859e-007
Heightened Def Con from 7.8859e-007 to 7.8859e-007
Heightened Def Con from 7.8859e-007 to 7.8859e-007
Heightened Def Con from 7.8859e-007 to 7.8859e-007
Heightened Def Con from 7.8859e-007 to 7.8859e-007
Heightened Def Con from 7.8859e-007 to 7.8859e-007
Heightened Def Con from 7.8859e-007 to 7.8859e-007
Heightened Def Con from 7.8859e-007 to 7.8859e-007
Heightened Def Con from 7.8859e-007 to 7.8859e-007
Heightened Def Con from 7.8859e-007 to 7.8859e-007
Heightened Def Con from 7.8859e-007 to 7.8859e-007
Heightened Def Con from 7.8859e-007 to 7.8859e-007
Heightened Def Con from 7.8859e-007 to 7.8859e-007
Heightened Def Con from 7.8859e-007 to 7.8859e-007
Heightened Def Con from 7.8859e-007 to 7.8859e-007
Heightened Def Con from 7.8859e-007 to 7.8859e-007
Heightened Def Con from 7.8859e-007 to 7.8859e-007
Heightened Def Con from 7.8859e-007 to 7.8859e-007
Heightened Def Con from 7.8859e-007 to 7.8859e-007
Heightened Def Con from 7.8859e-007 to 7.8859e-007
Heightened Def Con from 7.8859e-007 to 7.8859e-007
Heightened Def Con from 7.8859e-007 to 7.8859e-007
Heightened Def Con from 7.8859e-007 to 7.8859e-007
Heightened Def Con from 7.8859e-007 to 7.8859e-007
Heightened Def Con from 7.8859e-007 to 7.8859e-007
Heightened Def Con from 7.8859e-007 to 7.8859e-007
Heightened Def Con from 7.8859e-007 to 7.8859e-007
Heightened Def Con from 7.8859e-007 to 7.8859e-007
Heightened Def Con from 7.8859e-007 to 7.8859e-007
Heightened Def Con from 7.8859e-007 to 7.8859e-007
Heightened Def Con from 7.8859e-007 to 7.8859e-007
Heightened Def Con from 7.8859e-007 to 7.8859e-007
Heightened Def Con from 7.8859e-007 to 7.8859e-007
Heightened Def Con from 7.8859e-007 to 7.8859e-007
Heightened Def Con from 7.8859e-007 to 7.8859e-007
Heightened Def Con from 7.8859e-007 to 7.8859e-007
Heightened Def Con from 7.8859e-007 to 7.8859e-007
Heightened Def Con from 7.8859e-007 to 7.8859e-007
Heightened Def Con from 7.8859e-007 to 7.8859e-007
Heightened Def Con from 7.8859e-007 to 7.8859e-007
Heightened Def Con from 7.8859e-007 to 7.8859e-007
Heightened Def Con from 7.8859e-007 to 7.8859e-007
Heightened Def Con from 7.8859e-007 to 7.8859e-007
Heightened Def Con from 7.8859e-007 to 7.8859e-007
Heightened Def Con from 7.8859e-007 to 7.8859e-007
Heightened Def Con from 7.8859e-007 to 7.8859e-007
Heightened Def Con from 7.8859e-007 to 7.8859e-007
Heightened Def Con from 7.8859e-007 to 7.8859e-007
Heightened Def Con from 7.8859e-007 to 7.8859e-007
Heightened Def Con from 7.8859e-007 to 7.8859e-007
Heightened Def Con from 7.8859e-007 to 7.8859e-007
Heightened Def Con from 7.8859e-007 to 7.8859e-007
Heightened Def Con from 7.8859e-007 to 7.8859e-007
Heightened Def Con from 7.8859e-007 to 7.8859e-007
Heightened Def Con from 7.8859e-007 to 7.8859e-007
Heightened Def Con from 7.8859e-007 to 7.8859e-007
Heightened Def Con from 7.8859e-007 to 7.8859e-007
Heightened Def Con from 7.8859e-007 to 7.8859e-007
Heightened Def Con from 7.8859e-007 to 7.8859e-007
Heightened Def Con from 7.8859e-007 to 7.8859e-007
Heightened Def Con from 7.8859e-007 to 7.8859e-007
Heightened Def Con from 7.8859e-007 to 7.8859e-007
Heightened Def Con from 7.8859e-007 to 7.8859e-007
Heightened Def Con from 7.8859e-007 to 7.8859e-007
Heightened Def Con from 7.8859e-007 to 7.8859e-007
Heightened Def Con from 7.8859e-007 to 7.8859e-007
Heightened Def Con from 7.8859e-007 to 7.8859e-007
Heightened Def Con from 7.8859e-007 to 7.8859e-007
Heightened Def Con from 7.8859e-007 to 7.8859e-007
Heightened Def Con from 7.8859e-007 to 7.8859e-007
Heightened Def Con from 7.8859e-007 to 7.8859e-007
Heightened Def Con from 7.8859e-007 to 7.8859e-007
Heightened Def Con from 7.8859e-007 to 7.8859e-007
Heightened Def Con from 7.8859e-007 to 7.8859e-007
Heightened Def Con from 7.8859e-007 to 7.8859e-007
Heightened Def Con from 7.8859e-007 to 7.8859e-007
Heightened Def Con from 7.8859e-007 to 7.8859e-007
Heightened Def Con from 7.8859e-007 to 7.8859e-007
Heightened Def Con from 7.8859e-007 to 7.8859e-007
Heightened Def Con from 7.8859e-007 to 7.8859e-007
Heightened Def Con from 7.8859e-007 to 7.8859e-007
Heightened Def Con from 7.8859e-007 to 7.8859e-007
Heightened Def Con from 7.8859e-007 to 7.8859e-007
Heightened Def Con from 7.8859e-007 to 7.8859e-007
Heightened Def Con from 7.8859e-007 to 7.8859e-007
Heightened Def Con from 7.8859e-007 to 7.8859e-007
Heightened Def Con from 7.8859e-007 to 7.8859e-007
Heightened Def Con from 7.8859e-007 to 7.8859e-007
Heightened Def Con from 7.8859e-007 to 7.8859e-007
Heightened Def Con from 7.8859e-007 to 7.8859e-007
Heightened Def Con from 7.8859e-007 to 7.8859e-007
Heightened Def Con from 7.8859e-007 to 7.8859e-007
Heightened Def Con from 7.8859e-007 to 7.8859e-007
Heightened Def Con from 7.8859e-007 to 7.8859e-007
Heightened Def Con from 7.8859e-007 to 7.8859e-007
Heightened Def Con from 7.8859e-007 to 7.8859e-007
Heightened Def Con from 7.8859e-007 to 7.8859e-007
Heightened Def Con from 7.8859e-007 to 7.8859e-007
Heightened Def Con from 7.8859e-007 to 7.8859e-007
Heightened Def Con from 7.8859e-007 to 7.8859e-007
Heightened Def Con from 7.8859e-007 to 7.8859e-007
Heightened Def Con from 7.8859e-007 to 7.8859e-007
Heightened Def Con from 7.8859e-007 to 7.8859e-007
Heightened Def Con from 7.8859e-007 to 7.8859e-007
Heightened Def Con from 7.8859e-007 to 7.8859e-007
Heightened Def Con from 7.8859e-007 to 7.8859e-007
Heightened Def Con from 7.8859e-007 to 7.8859e-007
Heightened Def Con from 7.8859e-007 to 7.8859e-007
Heightened Def Con from 7.8859e-007 to 7.8859e-007
Heightened Def Con from 7.8859e-007 to 7.8859e-007
Heightened Def Con from 7.8859e-007 to 7.8859e-007
Heightened Def Con from 7.8859e-007 to 7.8859e-007
Heightened Def Con from 7.8859e-007 to 7.8859e-007
Heightened Def Con from 7.8859e-007 to 7.8859e-007
Heightened Def Con from 7.8859e-007 to 7.8859e-007
Heightened Def Con from 7.8859e-007 to 7.8859e-007
Heightened Def Con from 7.8859e-007 to 7.8859e-007
Heightened Def Con from 7.8859e-007 to 7.8859e-007
Heightened Def Con from 7.8859e-007 to 7.8859e-007
Heightened Def Con from 7.8859e-007 to 7.8859e-007
Heightened Def Con from 7.8859e-007 to 7.8859e-007
Heightened Def Con from 7.8859e-007 to 7.8859e-007
Heightened Def Con from 7.8859e-007 to 7.8859e-007
Heightened Def Con from 7.8859e-007 to 7.8859e-007
Heightened Def Con from 7.8859e-007 to 7.8859e-007
Heightened Def Con from 7.8859e-007 to 7.8859e-007
Heightened Def Con from 7.8859e-007 to 7.8859e-007
Heightened Def Con from 7.8859e-007 to 7.8859e-007
Heightened Def Con from 7.8859e-007 to 7.8859e-007
Heightened Def Con from 7.8859e-007 to 7.8859e-007
Heightened Def Con from 7.8859e-007 to 7.8859e-007
Heightened Def Con from 7.8859e-007 to 7.8859e-007
Heightened Def Con from 7.8859e-007 to 7.8859e-007
Heightened Def Con from 7.8859e-007 to 7.8859e-007
Heightened Def Con from 7.8859e-007 to 7.8859e-007
Heightened Def Con from 7.8859e-007 to 7.8859e-007
Heightened Def Con from 7.8859e-007 to 7.8859e-007
Heightened Def Con from 7.8859e-007 to 7.8859e-007
Heightened Def Con from 7.8859e-007 to 7.8859e-007
Heightened Def Con from 7.8859e-007 to 7.8859e-007
Heightened Def Con from 7.8859e-007 to 7.8859e-007
Heightened Def Con from 7.8859e-007 to 7.8859e-007
Heightened Def Con from 7.8859e-007 to 7.8859e-007
Heightened Def Con from 7.8859e-007 to 7.8859e-007
Heightened Def Con from 7.8859e-007 to 7.8859e-007
Heightened Def Con from 7.8859e-007 to 7.8859e-007
Heightened Def Con from 7.8859e-007 to 7.8859e-007
Heightened Def Con from 7.8859e-007 to 7.8859e-007
Heightened Def Con from 7.8859e-007 to 7.8859e-007
Heightened Def Con from 7.8859e-007 to 7.8859e-007
Heightened Def Con from 7.8859e-007 to 7.8859e-007
Heightened Def Con from 7.8859e-007 +to 7.8859e-007
Heightened Def Con from 7.8859e-007 to 7.8859e-007
Heightened Def Con from 7.8859e-007 to 7.8859e-007
Heightened Def Con from 7.8859e-007 to 7.8859e-007
Heightened Def Con from 7.8859e-007 to 7.8859e-007
Heightened Def Con from 7.8859e-007 to 7.8859e-007
Heightened Def Con from 7.8859e-007 to 7.8859e-007
Heightened Def Con from 7.8859e-007 to 7.8859e-007
Heightened Def Con from 7.8859e-007 to 7.8859e-007
Heightened Def Con from 7.8859e-007 to 7.8859e-007
Heightened Def Con from 7.8859e-007 to 7.8859e-007
Heightened Def Con from 7.8859e-007 to 7.8859e-007
Heightened Def Con from 7.8859e-007 to 7.8859e-007
Heightened Def Con from 7.8859e-007 to 7.8859e-007
Heightened Def Con from 7.8859e-007 to 7.8859e-007
Heightened Def Con from 7.8859e-007 to 7.8859e-007
Heightened Def Con from 7.8859e-007 to 7.8859e-007
Heightened Def Con from 7.8859e-007 to 7.8859e-007
Heightened Def Con from 7.8859e-007 to 7.8859e-007
Heightened Def Con from 7.8859e-007 to 7.8859e-007
Heightened Def Con from 7.8859e-007 to 7.8859e-007
Heightened Def Con from 7.8859e-007 to 7.8859e-007
Heightened Def Con from 7.8859e-007 to 7.8859e-007
Heightened Def Con from 7.8859e-007 to 7.8859e-007
Heightened Def Con from 7.8859e-007 to 7.8859e-007
Heightened Def Con from 7.8859e-007 to 7.8859e-007
Heightened Def Con from 7.8859e-007 to 7.8859e-007
Heightened Def Con from 7.8859e-007 to 7.8859e-007
Heightened Def Con from 7.8859e-007 to 7.8859e-007
Heightened Def Con from 7.8859e-007 to 7.8859e-007
Heightened Def Con from 7.8859e-007 to 7.8859e-007
Heightened Def Con from 7.8859e-007 to 7.8859e-007
Heightened Def Con from 7.8859e-007 to 7.8859e-007
Heightened Def Con from 7.8859e-007 to 7.8859e-007
Heightened Def Con from 7.8859e-007 to 7.8859e-007
Heightened Def Con from 7.8859e-007 to 7.8859e-007
Heightened Def Con from 7.8859e-007 to 7.8859e-007
Heightened Def Con from 7.8859e-007 to 7.8859e-007
Heightened Def Con from 7.8859e-007 to 7.8859e-007
Heightened Def Con from 7.8859e-007 to 7.8859e-007
Heightened Def Con from 7.8859e-007 to 7.8859e-007
Heightened Def Con from 7.8859e-007 to 7.8859e-007
Heightened Def Con from 7.8859e-007 to 7.8859e-007
Heightened Def Con from 7.8859e-007 to 7.8859e-007
Heightened Def Con from 7.8859e-007 to 7.8859e-007
Heightened Def Con from 7.8859e-007 to 7.8859e-007
Heightened Def Con from 7.8859e-007 to 7.8859e-007
Heightened Def Con from 7.8859e-007 to 7.8859e-007
Heightened Def Con from 7.8859e-007 to 7.8859e-007
Heightened Def Con from 7.8859e-007 to 7.8859e-007
Heightened Def Con from 7.8859e-007 to 7.8859e-007
Heightened Def Con from 7.8859e-007 to 7.8859e-007
Heightened Def Con from 7.8859e-007 to 7.8859e-007
Heightened Def Con from 7.8859e-007 to 7.8859e-007
Heightened Def Con from 7.8859e-007 to 7.8859e-007
Heightened Def Con from 7.8859e-007 to 7.8859e-007
Heightened Def Con from 7.8859e-007 to 7.8859e-007
Heightened Def Con from 7.8859e-007 to 7.8859e-007
Heightened Def Con from 7.8859e-007 to 7.8859e-007
Heightened Def Con from 7.8859e-007 to 7.8859e-007
Heightened Def Con from 7.8859e-007 to 7.8859e-007
Heightened Def Con from 7.8859e-007 to 7.8859e-007
Heightened Def Con from 7.8859e-007 to 7.8859e-007
Heightened Def Con from 7.8859e-007 to 7.8859e-007
Heightened Def Con from 7.8859e-007 to 7.8859e-007
Heightened Def Con from 7.8859e-007 to 7.8859e-007
Heightened Def Con from 7.8859e-007 to 7.8859e-007
Heightened Def Con from 7.8859e-007 to 7.8859e-007
Heightened Def Con from 7.8859e-007 to 7.8859e-007
Heightened Def Con from 7.8859e-007 to 7.8859e-007
Heightened Def Con from 7.8859e-007 to 7.8859e-007
Heightened Def Con from 7.8859e-007 to 7.8859e-007
Heightened Def Con from 7.8859e-007 to 7.8859e-007
Heightened Def Con from 7.8859e-007 to 7.8859e-007
Heightened Def Con from 7.8859e-007 to 7.8859e-007
Heightened Def Con from 7.8859e-007 to 7.8859e-007
Heightened Def Con from 7.8859e-007 to 7.8859e-007
Heightened Def Con from 7.8859e-007 to 7.8859e-007
Heightened Def Con from 7.8859e-007 to 7.8859e-007
Heightened Def Con from 7.8859e-007 to 7.8859e-007
Heightened Def Con from 7.8859e-007 to 7.8859e-007
Heightened Def Con from 7.8859e-007 to 7.8859e-007
Heightened Def Con from 7.8859e-007 to 7.8859e-007
Heightened Def Con from 7.8859e-007 to 7.8859e-007
Heightened Def Con from 7.8859e-007 to 7.8859e-007
Heightened Def Con from 7.8859e-007 to 7.8859e-007
Heightened Def Con from 7.8859e-007 to 7.8859e-007
Heightened Def Con from 7.8859e-007 to 7.8859e-007
Heightened Def Con from 7.8859e-007 to 7.8859e-007
Heightened Def Con from 7.8859e-007 to 7.8859e-007
Heightened Def Con from 7.8859e-007 to 7.8859e-007
Heightened Def Con from 7.8859e-007 to 7.8859e-007
Heightened Def Con from 7.8859e-007 to 7.8859e-007
Heightened Def Con from 7.8859e-007 to 7.8859e-007
Heightened Def Con from 7.8859e-007 to 7.8859e-007
Heightened Def Con from 7.8859e-007 to 7.8859e-007
Heightened Def Con from 7.8859e-007 to 7.8859e-007
Heightened Def Con from 7.8859e-007 to 7.8859e-007
Heightened Def Con from 7.8859e-007 +to 7.8859e-007
Heightened Def Con from 7.8859e-007 to 7.8859e-007
Heightened Def Con from 7.8859e-007 to 7.8859e-007
Heightened Def Con from 7.8859e-007 to 7.8859e-007
Heightened Def Con from 7.8859e-007 to 7.8859e-007
Heightened Def Con from 7.8859e-007 to 7.8859e-007
Heightened Def Con from 7.8859e-007 to 7.8859e-007
Heightened Def Con from 7.8859e-007 to 7.8859e-007
Heightened Def Con from 7.8859e-007 to 7.8859e-007
Heightened Def Con from 7.8859e-007 to 7.8859e-007
Heightened Def Con from 7.8859e-007 to 7.8859e-007
Heightened Def Con from 7.8859e-007 to 7.8859e-007
Heightened Def Con from 7.8859e-007 to 7.8859e-007
Heightened Def Con from 7.8859e-007 to 7.8859e-007
Heightened Def Con from 7.8859e-007 to 7.8859e-007
Heightened Def Con from 7.8859e-007 to 7.8859e-007
Heightened Def Con from 7.8859e-007 to 7.8859e-007
Heightened Def Con from 7.8859e-007 to 7.8859e-007
Heightened Def Con from 7.8859e-007 to 7.8859e-007
Heightened Def Con from 7.8859e-007 to 7.8859e-007
Heightened Def Con from 7.8859e-007 to 7.8859e-007
Heightened Def Con from 7.8859e-007 to 7.8859e-007
Heightened Def Con from 7.8859e-007 to 7.8859e-007
Heightened Def Con from 7.8859e-007 to 7.8859e-007
Heightened Def Con from 7.8859e-007 ++++++++++++++++++++to 7.88717e-007
Heightened Def Con from 7.88717e-007 +++++++++++++++to 7.88719e-007
Heightened Def Con from 7.88719e-007 +++++++++++++++to 7.88721e-007
Heightened Def Con from 7.88721e-007 +++++++++++++++to 7.88722e-007
Heightened Def Con from 7.88722e-007 +++++++++++++++to 7.88722e-007
Heightened Def Con from 7.88722e-007 +++++++++++++++to 7.88722e-007
Heightened Def Con from 7.88722e-007 +++++++++++++++to 7.88722e-007
Heightened Def Con from 7.88722e-007 +++++++++++++++to 7.88722e-007
Heightened Def Con from 7.88722e-007 +++++++++++++++to 7.88722e-007
Heightened Def Con from 7.88722e-007 +++++++++++++++to 7.88722e-007
Heightened Def Con from 7.88722e-007 +++++++++++++++to 7.88723e-007
Heightened Def Con from 7.88723e-007 +++++++++++++++to 7.88729e-007
Heightened Def Con from 7.88729e-007 ++++to 7.88869e-007
Heightened Def Con from 8.05027e-007 to 8.05027e-007
Heightened Def Con from 8.05027e-007 to 8.05027e-007
Heightened Def Con from 8.05027e-007 to 8.05027e-007
Heightened Def Con from 8.05027e-007 to 8.05027e-007
Heightened Def Con from 8.55444e-007 to 8.55444e-007
Heightened Def Con from 8.55444e-007 to 8.55444e-007
Heightened Def Con from 8.55444e-007 to 8.55444e-007
Heightened Def Con from 8.55444e-007 to 8.55444e-007
Heightened Def Con from 8.55444e-007 to 8.55444e-007
Heightened Def Con from 8.55444e-007 to 8.55444e-007
Heightened Def Con from 8.55444e-007 to 8.55444e-007
Heightened Def Con from 8.55444e-007 to 8.55444e-007
Heightened Def Con from 8.55444e-007 to 8.55444e-007
Heightened Def Con from 8.55444e-007 to 8.55444e-007
Heightened Def Con from 8.55444e-007 to 8.55444e-007
Heightened Def Con from 8.55444e-007 to 8.55444e-007
Heightened Def Con from 8.55444e-007 to 8.55444e-007
Heightened Def Con from 8.55444e-007 ++++++++++++++++++++to 8.55585e-007
Heightened Def Con from 8.55585e-007 ++++++++++to 8.55585e-007
Heightened Def Con from 8.55585e-007 +++++++++to 8.55585e-007
Heightened Def Con from 8.55585e-007 +++++++++to 8.55585e-007
Heightened Def Con from 8.55585e-007 +++++++++to 8.55585e-007
Heightened Def Con from 8.55585e-007 +++++++++to 8.55585e-007
Heightened Def Con from 8.55585e-007 +++++++++to 8.55585e-007
Heightened Def Con from 8.55593e-007 to 8.55593e-007
Heightened Def Con from 8.55593e-007 to 8.55593e-007
Heightened Def Con from 8.55593e-007 to 8.55593e-007
Heightened Def Con from 8.55593e-007 to 8.55593e-007
Heightened Def Con from 8.55593e-007 to 8.55593e-007
Heightened Def Con from 8.55593e-007 to 8.55593e-007
Heightened Def Con from 8.55593e-007 to 8.55593e-007
Heightened Def Con from 8.55593e-007 to 8.55593e-007
Heightened Def Con from 8.55593e-007 to 8.55593e-007
Heightened Def Con from 8.55593e-007 to 8.55593e-007
Heightened Def Con from 8.55593e-007 to 8.55593e-007
Heightened Def Con from 8.55593e-007 to 8.55593e-007
Heightened Def Con from 8.55593e-007 to 8.55593e-007
Heightened Def Con from 8.55593e-007 to 8.55593e-007
Heightened Def Con from 8.55593e-007 to 8.55593e-007
Heightened Def Con from 8.55593e-007 to 8.55593e-007
Heightened Def Con from 8.55593e-007 to 8.55593e-007
Heightened Def Con from 8.55593e-007 to 8.55593e-007
Heightened Def Con from 8.55593e-007 to 8.55593e-007
Heightened Def Con from 8.55593e-007 to 8.55593e-007
Heightened Def Con from 8.55593e-007 to 8.55593e-007
Heightened Def Con from 8.55593e-007 to 8.55593e-007
Heightened Def Con from 8.55593e-007 to 8.55593e-007
Heightened Def Con from 8.55593e-007 to 8.55593e-007
Heightened Def Con from 8.55593e-007 to 8.55593e-007
Heightened Def Con from 8.55593e-007 to 8.55593e-007
Heightened Def Con from 8.55593e-007 to 8.55593e-007
Heightened Def Con from 8.55593e-007 to 8.55593e-007
Heightened Def Con from 8.55593e-007 to 8.55593e-007
Heightened Def Con from 8.55593e-007 to 8.55593e-007
Heightened Def Con from 8.55593e-007 to 8.55593e-007
Heightened Def Con from 8.55593e-007 to 8.55593e-007
Heightened Def Con from 8.55593e-007 to 8.55593e-007
Heightened Def Con from 8.55593e-007 to 8.55593e-007
Heightened Def Con from 8.55593e-007 to 8.55593e-007
Heightened Def Con from 8.55593e-007 to 8.55593e-007
Heightened Def Con from 8.55593e-007 to 8.55593e-007
Heightened Def Con from 8.55593e-007 to 8.55593e-007
Heightened Def Con from 8.55593e-007 to 8.55593e-007
Heightened Def Con from 8.55593e-007 to 8.55593e-007
Heightened Def Con from 8.55593e-007 to 8.55593e-007
Heightened Def Con from 8.55593e-007 to 8.55593e-007
Heightened Def Con from 8.55593e-007 to 8.55593e-007
Heightened Def Con from 8.55593e-007 to 8.55593e-007
Heightened Def Con from 8.55593e-007 to 8.55593e-007
Heightened Def Con from 8.55593e-007 to 8.55593e-007
Heightened Def Con from 8.55593e-007 to 8.55593e-007
Heightened Def Con from 8.55593e-007 to 8.55593e-007
Heightened Def Con from 8.55593e-007 to 8.55593e-007
Heightened Def Con from 8.55593e-007 to 8.55593e-007
Heightened Def Con from 8.55593e-007 to 8.55593e-007
Heightened Def Con from 8.55593e-007 to 8.55593e-007
Heightened Def Con from 8.55593e-007 to 8.55593e-007
Heightened Def Con from 8.55593e-007 to 8.55593e-007
Heightened Def Con from 8.55593e-007 to 8.55593e-007
Heightened Def Con from 8.55593e-007 to 8.55593e-007
Heightened Def Con from 8.55593e-007 to 8.55593e-007
Heightened Def Con from 8.55593e-007 to 8.55593e-007
Heightened Def Con from 8.55593e-007 to 8.55593e-007
Heightened Def Con from 8.55593e-007 to 8.55593e-007
Heightened Def Con from 8.55593e-007 to 8.55593e-007
Heightened Def Con from 8.55593e-007 to 8.55593e-007
Heightened Def Con from 8.55593e-007 to 8.55593e-007
Heightened Def Con from 8.55593e-007 to 8.55593e-007
Heightened Def Con from 8.55593e-007 to 8.55593e-007
Heightened Def Con from 8.55593e-007 to 8.55593e-007
Heightened Def Con from 8.55593e-007 to 8.55593e-007
Heightened Def Con from 8.55593e-007 to 8.55593e-007
Heightened Def Con from 8.55593e-007 to 8.55593e-007
Heightened Def Con from 8.55593e-007 to 8.55593e-007
Heightened Def Con from 8.55593e-007 to 8.55593e-007
Heightened Def Con from 8.55593e-007 to 8.55593e-007
Heightened Def Con from 8.55593e-007 to 8.55593e-007
Heightened Def Con from 8.55593e-007 to 8.55593e-007
Heightened Def Con from 8.55593e-007 to 8.55593e-007
Heightened Def Con from 8.55593e-007 to 8.55593e-007
Heightened Def Con from 8.55593e-007 to 8.55593e-007
Heightened Def Con from 8.55593e-007 to 8.55593e-007
Heightened Def Con from 8.55593e-007 to 8.55593e-007
Heightened Def Con from 8.55593e-007 to 8.55593e-007
Heightened Def Con from 8.55593e-007 to 8.55593e-007
Heightened Def Con from 8.55593e-007 to 8.55593e-007
Heightened Def Con from 8.55593e-007 to 8.55593e-007
Heightened Def Con from 8.55593e-007 to 8.55593e-007
Heightened Def Con from 8.55593e-007 to 8.55593e-007
Heightened Def Con from 8.55593e-007 to 8.55593e-007
Heightened Def Con from 8.55593e-007 to 8.55593e-007
Heightened Def Con from 8.55593e-007 to 8.55593e-007
Heightened Def Con from 8.55593e-007 to 8.55593e-007
Heightened Def Con from 8.55593e-007 to 8.55593e-007
Heightened Def Con from 8.55593e-007 to 8.55593e-007
Heightened Def Con from 8.55593e-007 to 8.55593e-007
Heightened Def Con from 8.55593e-007 to 8.55593e-007
Heightened Def Con from 8.55593e-007 to 8.55593e-007
Heightened Def Con from 8.55593e-007 to 8.55593e-007
Heightened Def Con from 8.55593e-007 to 8.55593e-007
Heightened Def Con from 8.55593e-007 to 8.55593e-007
Heightened Def Con from 8.55593e-007 to 8.55593e-007
Heightened Def Con from 8.55593e-007 to 8.55593e-007
Heightened Def Con from 8.55593e-007 to 8.55593e-007
Heightened Def Con from 8.55593e-007 to 8.55593e-007
Heightened Def Con from 8.55593e-007 to 8.55593e-007
Heightened Def Con from 8.55593e-007 to 8.55593e-007
Heightened Def Con from 8.55593e-007 to 8.55593e-007
Heightened Def Con from 8.55593e-007 to 8.55593e-007
Heightened Def Con from 8.55593e-007 to 8.55593e-007
Heightened Def Con from 8.55593e-007 to 8.55593e-007
Heightened Def Con from 8.55593e-007 to 8.55593e-007
Heightened Def Con from 8.55593e-007 to 8.55593e-007
Heightened Def Con from 8.55593e-007 to 8.55593e-007
Heightened Def Con from 8.55593e-007 to 8.55593e-007
Heightened Def Con from 8.55593e-007 to 8.55593e-007
Heightened Def Con from 8.55593e-007 to 8.55593e-007
Heightened Def Con from 8.55593e-007 to 8.55593e-007
Heightened Def Con from 8.55593e-007 to 8.55593e-007
Heightened Def Con from 8.55593e-007 to 8.55593e-007
Heightened Def Con from 8.55593e-007 to 8.55593e-007
Heightened Def Con from 8.55593e-007 to 8.55593e-007
Heightened Def Con from 8.55593e-007 to 8.55593e-007
Heightened Def Con from 8.55593e-007 to 8.55593e-007
Heightened Def Con from 8.55593e-007 to 8.55593e-007
Heightened Def Con from 8.55593e-007 to 8.55593e-007
Heightened Def Con from 8.55593e-007 to 8.55593e-007
Heightened Def Con from 8.55593e-007 to 8.55593e-007
Heightened Def Con from 8.55593e-007 to 8.55593e-007
Heightened Def Con from 8.55593e-007 to 8.55593e-007
Heightened Def Con from 8.55593e-007 to 8.55593e-007
Heightened Def Con from 8.55593e-007 to 8.55593e-007
Heightened Def Con from 8.55593e-007 to 8.55593e-007
Heightened Def Con from 8.55593e-007 to 8.55593e-007
Heightened Def Con from 8.55593e-007 to 8.55593e-007
Heightened Def Con from 8.55593e-007 to 8.55593e-007
Heightened Def Con from 8.55593e-007 to 8.55593e-007
Heightened Def Con from 8.55593e-007 to 8.55593e-007
Heightened Def Con from 8.55593e-007 to 8.55593e-007
Heightened Def Con from 8.55593e-007 to 8.55593e-007
Heightened Def Con from 8.55593e-007 to 8.55593e-007
Heightened Def Con from 8.55593e-007 to 8.55593e-007
Heightened Def Con from 8.55593e-007 to 8.55593e-007
Heightened Def Con from 8.55593e-007 to 8.55593e-007
Heightened Def Con from 8.55593e-007 to 8.55593e-007
Heightened Def Con from 8.55593e-007 to 8.55593e-007
Heightened Def Con from 8.55593e-007 to 8.55593e-007
Heightened Def Con from 8.55593e-007 to 8.55593e-007
Heightened Def Con from 8.55593e-007 to 8.55593e-007
Heightened Def Con from 8.55593e-007 to 8.55593e-007
Heightened Def Con from 8.55593e-007 to 8.55593e-007
Heightened Def Con from 8.55593e-007 to 8.55593e-007
Heightened Def Con from 8.55593e-007 to 8.55593e-007
Heightened Def Con from 8.55593e-007 to 8.55593e-007
Heightened Def Con from 8.55593e-007 to 8.55593e-007
Heightened Def Con from 8.55593e-007 to 8.55593e-007
Heightened Def Con from 8.55593e-007 to 8.55593e-007
Heightened Def Con from 8.55593e-007 to 8.55593e-007
Heightened Def Con from 8.55593e-007 to 8.55593e-007
Heightened Def Con from 8.55593e-007 to 8.55593e-007
Heightened Def Con from 8.55593e-007 to 8.55593e-007
Heightened Def Con from 8.55593e-007 to 8.55593e-007
Heightened Def Con from 8.55593e-007 to 8.55593e-007
Heightened Def Con from 8.55593e-007 to 8.55593e-007
Heightened Def Con from 8.55593e-007 to 8.55593e-007
Heightened Def Con from 8.55593e-007 to 8.55593e-007
Heightened Def Con from 8.55593e-007 to 8.55593e-007
Heightened Def Con from 8.55593e-007 to 8.55593e-007
Heightened Def Con from 8.55593e-007 to 8.55593e-007
Heightened Def Con from 8.55593e-007 to 8.55593e-007
Heightened Def Con from 8.55593e-007 to 8.55593e-007
Heightened Def Con from 8.55593e-007 to 8.55593e-007
Heightened Def Con from 8.55593e-007 to 8.55593e-007
Heightened Def Con from 8.55593e-007 to 8.55593e-007
Heightened Def Con from 8.55593e-007 to 8.55593e-007
Heightened Def Con from 8.55593e-007 to 8.55593e-007
Heightened Def Con from 8.55593e-007 to 8.55593e-007
Heightened Def Con from 8.55593e-007 to 8.55593e-007
Heightened Def Con from 8.55593e-007 to 8.55593e-007
Heightened Def Con from 8.55593e-007 to 8.55593e-007
Heightened Def Con from 8.55593e-007 to 8.55593e-007
Heightened Def Con from 8.55593e-007 to 8.55593e-007
Heightened Def Con from 8.55593e-007 to 8.55593e-007
Heightened Def Con from 8.55593e-007 to 8.55593e-007
Heightened Def Con from 8.55593e-007 to 8.55593e-007
Heightened Def Con from 8.55593e-007 to 8.55593e-007
Heightened Def Con from 8.55593e-007 to 8.55593e-007
Heightened Def Con from 8.55593e-007 to 8.55593e-007
Heightened Def Con from 8.55593e-007 to 8.55593e-007
Heightened Def Con from 8.55593e-007 to 8.55593e-007
Heightened Def Con from 8.55593e-007 to 8.55593e-007
Heightened Def Con from 8.55593e-007 to 8.55593e-007
Heightened Def Con from 8.55593e-007 to 8.55593e-007
Heightened Def Con from 8.55593e-007 to 8.55593e-007
Heightened Def Con from 8.55593e-007 to 8.55593e-007
Heightened Def Con from 8.55593e-007 to 8.55593e-007
Heightened Def Con from 8.55593e-007 ++to 8.55593e-007
Heightened Def Con from 8.55593e-007 ++++++++++++++++++++to 8.55611e-007
Heightened Def Con from 8.55611e-007 ++++++++++++to 8.55613e-007
Heightened Def Con from 8.55613e-007 +++++++++++to 8.55613e-007
Heightened Def Con from 8.55613e-007 +++++++++++to 8.55614e-007
Heightened Def Con from 8.55614e-007 +++++++++++to 8.55614e-007
Heightened Def Con from 8.55614e-007 +++++++++++to 8.55614e-007
Heightened Def Con from 8.55614e-007 +++++++++++to 8.55614e-007
Heightened Def Con from 8.55614e-007 +++++++++++to 8.55614e-007
Heightened Def Con from 8.55614e-007 +++++++++++to 8.55614e-007
Heightened Def Con from 8.55614e-007 to 8.55616e-007
Heightened Def Con from 9.02551e-007 to 9.02551e-007
Heightened Def Con from 9.02551e-007 to 9.02551e-007
Heightened Def Con from 9.02551e-007 to 9.02551e-007
Heightened Def Con from 9.02551e-007 to 9.02551e-007
Heightened Def Con from 9.02551e-007 to 9.02551e-007
Heightened Def Con from 9.02551e-007 to 9.02551e-007
Heightened Def Con from 9.02551e-007 to 9.02551e-007
Heightened Def Con from 9.02551e-007 to 9.02551e-007
Heightened Def Con from 9.02551e-007 to 9.02551e-007
Heightened Def Con from 9.02551e-007 to 9.02551e-007
Heightened Def Con from 9.02551e-007 to 9.02551e-007
Heightened Def Con from 9.02551e-007 to 9.02551e-007
Heightened Def Con from 9.02551e-007 to 9.02551e-007
Heightened Def Con from 9.02551e-007 to 9.02551e-007
Heightened Def Con from 9.02551e-007 to 9.02551e-007
Heightened Def Con from 9.02551e-007 to 9.02551e-007
Heightened Def Con from 9.02551e-007 to 9.02551e-007
Heightened Def Con from 9.02551e-007 to 9.02551e-007
Heightened Def Con from 9.02551e-007 to 9.02551e-007
Heightened Def Con from 9.02551e-007 to 9.02551e-007
Heightened Def Con from 9.02551e-007 to 9.02551e-007
Heightened Def Con from 9.02551e-007 to 9.02551e-007
Heightened Def Con from 9.02551e-007 to 9.02551e-007
Heightened Def Con from 9.02551e-007 to 9.02551e-007
Heightened Def Con from 9.02551e-007 to 9.02551e-007
Heightened Def Con from 9.02551e-007 to 9.02551e-007
Heightened Def Con from 9.02551e-007 to 9.02551e-007
Heightened Def Con from 9.02551e-007 to 9.02551e-007
Heightened Def Con from 9.02551e-007 to 9.02551e-007
Heightened Def Con from 9.02551e-007 to 9.02551e-007
Heightened Def Con from 9.02551e-007 to 9.02551e-007
Heightened Def Con from 9.02551e-007 to 9.02552e-007
Heightened Def Con from 9.22359e-007 to 9.22359e-007
Heightened Def Con from 9.2236e-007 to 9.2236e-007
Heightened Def Con from 9.2236e-007 to 9.2236e-007
Heightened Def Con from 9.2236e-007 to 9.2236e-007
Heightened Def Con from 9.2236e-007 to 9.2236e-007
Heightened Def Con from 9.2236e-007 to 9.2236e-007
Heightened Def Con from 9.2236e-007 to 9.2236e-007
Heightened Def Con from 9.2236e-007 to 9.2236e-007
Heightened Def Con from 9.2236e-007 ++++++++++++++++++++to 9.225e-007
Heightened Def Con from 9.225e-007 ++++++++++++to 9.225e-007
Heightened Def Con from 9.225e-007 ++++++++++++to 9.225e-007
Heightened Def Con from 9.225e-007 ++++++++++++to 9.225e-007
Heightened Def Con from 9.225e-007 ++++++++++++to 9.225e-007
Heightened Def Con from 9.225e-007 +++++++++++to 9.225e-007
Heightened Def Con from 9.2251e-007 to 9.2251e-007
Heightened Def Con from 9.2251e-007 to 9.2251e-007
Heightened Def Con from 9.2251e-007 to 9.2251e-007
Heightened Def Con from 9.2251e-007 to 9.2251e-007
Heightened Def Con from 9.2251e-007 to 9.2251e-007
Heightened Def Con from 9.2251e-007 to 9.2251e-007
Heightened Def Con from 9.2251e-007 to 9.2251e-007
Heightened Def Con from 9.2251e-007 ++++++++++++++++++++to 9.22527e-007
Heightened Def Con from 9.22527e-007 ++++++++++to 9.22529e-007
Heightened Def Con from 9.22529e-007 ++++++++to 9.2253e-007
Heightened Def Con from 1.00599e-006 to 1.00599e-006
Heightened Def Con from 1.00599e-006 to 1.00599e-006
Heightened Def Con from 1.00599e-006 to 1.00599e-006
Heightened Def Con from 1.00599e-006 to 1.00599e-006
Heightened Def Con from 1.00599e-006 to 1.00599e-006
Heightened Def Con from 1.00599e-006 to 1.00599e-006
Heightened Def Con from 1.00599e-006 to 1.00599e-006
Heightened Def Con from 1.00599e-006 to 1.00599e-006
Heightened Def Con from 1.00599e-006 to 1.00599e-006
Heightened Def Con from 1.00599e-006 to 1.00599e-006
Heightened Def Con from 1.00599e-006 to 1.00599e-006
Heightened Def Con from 1.00599e-006 to 1.00599e-006
Heightened Def Con from 1.00599e-006 to 1.00599e-006
Heightened Def Con from 1.00599e-006 to 1.00599e-006
Heightened Def Con from 1.00599e-006 to 1.00599e-006
Heightened Def Con from 1.00599e-006 to 1.00599e-006
Heightened Def Con from 1.00599e-006 to 1.00599e-006
Heightened Def Con from 1.00599e-006 to 1.00599e-006
Heightened Def Con from 1.00599e-006 to 1.00599e-006
Heightened Def Con from 1.00599e-006 to 1.00599e-006
Heightened Def Con from 1.00599e-006 to 1.00599e-006
Heightened Def Con from 1.00599e-006 ++++++++++++++++++++to 1.00612e-006
Heightened Def Con from 1.00612e-006 +++++++++++++to 1.00612e-006
Heightened Def Con from 1.00612e-006 +++++++++++++to 1.00612e-006
Heightened Def Con from 1.00612e-006 +++++++++++++to 1.00612e-006
Heightened Def Con from 1.00612e-006 +++++++++++++to 1.00612e-006
Heightened Def Con from 1.00612e-006 +++++++++++++to 1.00612e-006
Heightened Def Con from 1.00612e-006 +++++++++++++to 1.00612e-006
Heightened Def Con from 1.00612e-006 +++++++++++++to 1.00612e-006
Heightened Def Con from 1.00612e-006 +++to 1.00612e-006
Heightened Def Con from 1.00613e-006 to 1.00613e-006
Heightened Def Con from 1.00613e-006 to 1.00613e-006
Heightened Def Con from 1.00613e-006 ++++++++++++++++++++to 1.00614e-006
Heightened Def Con from 1.00614e-006 +++++++++++to 1.00614e-006
Heightened Def Con from 1.00614e-006 +++++++++++to 1.00614e-006
Heightened Def Con from 1.00614e-006 ++++++++++to 1.00614e-006
Heightened Def Con from 1.00614e-006 +++++++to 1.00614e-006
Heightened Def Con from 1.00614e-006 ++++++to 1.00614e-006
Heightened Def Con from 1.00614e-006 to 1.00614e-006
Heightened Def Con from 1.00614e-006 to 1.00614e-006
Heightened Def Con from 1.00614e-006 to 1.00614e-006
Heightened Def Con from 1.00614e-006 to 1.00614e-006
Heightened Def Con from 1.00614e-006 to 1.00614e-006
Heightened Def Con from 1.00614e-006 to 1.00614e-006
Heightened Def Con from 1.00614e-006 to 1.00614e-006
Heightened Def Con from 1.00614e-006 to 1.00614e-006
Heightened Def Con from 1.00614e-006 to 1.00614e-006
Heightened Def Con from 1.00614e-006 to 1.00614e-006
Heightened Def Con from 1.00614e-006 to 1.00614e-006
Heightened Def Con from 1.00614e-006 to 1.00614e-006
Heightened Def Con from 1.00614e-006 to 1.00614e-006
Heightened Def Con from 1.00614e-006 to 1.00614e-006
Heightened Def Con from 1.00614e-006 to 1.00614e-006
Heightened Def Con from 1.00614e-006 to 1.00614e-006
Heightened Def Con from 1.00614e-006 to 1.00614e-006
Heightened Def Con from 1.00614e-006 to 1.00614e-006
Heightened Def Con from 1.00614e-006 to 1.00614e-006
Heightened Def Con from 1.00614e-006 to 1.00614e-006
Heightened Def Con from 1.00614e-006 to 1.00614e-006
Heightened Def Con from 1.00614e-006 to 1.00614e-006
Heightened Def Con from 1.00614e-006 to 1.00614e-006
Heightened Def Con from 1.00614e-006 to 1.00614e-006
Heightened Def Con from 1.00614e-006 to 1.00614e-006
Heightened Def Con from 1.00614e-006 to 1.00614e-006
Heightened Def Con from 1.00614e-006 to 1.00614e-006
Heightened Def Con from 1.00614e-006 to 1.00614e-006
Heightened Def Con from 1.00614e-006 to 1.00614e-006
Heightened Def Con from 1.00614e-006 to 1.00614e-006
Heightened Def Con from 1.00614e-006 to 1.00614e-006
Heightened Def Con from 1.00614e-006 to 1.00614e-006
Heightened Def Con from 1.00614e-006 to 1.00614e-006
Heightened Def Con from 1.00614e-006 to 1.00614e-006
Heightened Def Con from 1.00614e-006 to 1.00614e-006
Heightened Def Con from 1.00614e-006 to 1.00614e-006
Heightened Def Con from 1.00614e-006 to 1.00614e-006
Heightened Def Con from 1.00614e-006 to 1.00614e-006
Heightened Def Con from 1.00614e-006 to 1.00614e-006
Heightened Def Con from 1.05617e-006 to 1.05617e-006
Heightened Def Con from 1.05617e-006 to 1.05617e-006
Heightened Def Con from 1.05617e-006 to 1.05617e-006
Heightened Def Con from 1.05617e-006 to 1.05617e-006
Heightened Def Con from 1.05617e-006 to 1.05617e-006
Heightened Def Con from 1.05617e-006 to 1.05617e-006
Heightened Def Con from 1.05617e-006 to 1.05617e-006
Heightened Def Con from 1.05617e-006 to 1.05617e-006
Heightened Def Con from 1.05617e-006 to 1.05617e-006
Heightened Def Con from 1.05617e-006 to 1.05617e-006
Heightened Def Con from 1.05617e-006 to 1.05617e-006
Heightened Def Con from 1.05617e-006 to 1.05617e-006
Heightened Def Con from 1.05617e-006 to 1.05617e-006
Heightened Def Con from 1.05617e-006 to 1.05617e-006
Heightened Def Con from 1.05617e-006 to 1.05617e-006
Heightened Def Con from 1.05617e-006 to 1.05617e-006
Heightened Def Con from 1.05617e-006 to 1.05617e-006
Heightened Def Con from 1.05617e-006 to 1.05617e-006
Heightened Def Con from 1.05617e-006 to 1.05617e-006
Heightened Def Con from 1.05617e-006 to 1.05617e-006
Heightened Def Con from 1.05617e-006 to 1.05617e-006
Heightened Def Con from 1.05617e-006 to 1.05617e-006
Heightened Def Con from 1.05617e-006 to 1.05617e-006
Heightened Def Con from 1.05617e-006 to 1.05617e-006
Heightened Def Con from 1.05617e-006 to 1.05617e-006
Heightened Def Con from 1.05617e-006 to 1.05617e-006
Heightened Def Con from 1.05617e-006 to 1.05617e-006
Heightened Def Con from 1.05617e-006 to 1.05617e-006
Heightened Def Con from 1.05617e-006 to 1.05617e-006
Heightened Def Con from 1.05617e-006 to 1.05617e-006
Heightened Def Con from 1.05617e-006 to 1.05617e-006
Heightened Def Con from 1.05617e-006 to 1.05617e-006
Heightened Def Con from 1.05617e-006 to 1.05617e-006
Heightened Def Con from 1.05617e-006 to 1.05617e-006
Heightened Def Con from 1.05617e-006 to 1.05617e-006
Heightened Def Con from 1.05617e-006 to 1.05617e-006
Heightened Def Con from 1.05617e-006 ++++++++++++++++++++to 1.05631e-006
Heightened Def Con from 1.05631e-006 +++++++++++++++++to 1.05631e-006
Heightened Def Con from 1.05631e-006 ++++++++++++++to 1.05631e-006
Heightened Def Con from 1.05631e-006 ++++++++++++++to 1.05631e-006
Heightened Def Con from 1.05631e-006 ++++++++++++++to 1.05631e-006
Heightened Def Con from 1.05631e-006 ++++++++++++++to 1.05631e-006
Heightened Def Con from 1.05631e-006 ++++++++++++++to 1.05631e-006
Heightened Def Con from 1.05631e-006 ++++++++++++++to 1.05631e-006
Heightened Def Con from 1.05631e-006 ++++++++++++++to 1.05631e-006
Heightened Def Con from 1.05631e-006 ++++++++++++++to 1.05631e-006
Heightened Def Con from 1.05631e-006 ++++++++++++++to 1.05631e-006
Heightened Def Con from 1.05631e-006 ++++++++++++++to 1.05631e-006
Heightened Def Con from 1.05631e-006 ++++++++++++++to 1.05631e-006
Heightened Def Con from 1.05631e-006 ++++++++++++++to 1.05631e-006
Heightened Def Con from 1.05631e-006 ++++++++++++++to 1.05631e-006
Heightened Def Con from 1.05631e-006 ++++++++++++++to 1.05632e-006
Heightened Def Con from 1.05632e-006 ++++++++++++++to 1.05633e-006
Heightened Def Con from 1.05633e-006 +++++++to 1.05633e-006
Heightened Def Con from 1.05633e-006 to 1.05633e-006
Heightened Def Con from 1.1031e-006 to 1.1031e-006
Heightened Def Con from 1.1031e-006 to 1.1031e-006
Heightened Def Con from 1.20671e-006 to 1.20671e-006
Heightened Def Con from 1.20671e-006 to 1.20671e-006
Heightened Def Con from 1.20671e-006 to 1.20671e-006
Heightened Def Con from 1.20671e-006 to 1.20671e-006
Heightened Def Con from 1.20671e-006 to 1.20671e-006
Heightened Def Con from 1.20671e-006 to 1.20671e-006
Heightened Def Con from 1.20671e-006 to 1.20671e-006
Heightened Def Con from 1.20671e-006 to 1.20671e-006
Heightened Def Con from 1.20671e-006 to 1.20671e-006
Heightened Def Con from 1.20671e-006 to 1.20671e-006
Heightened Def Con from 1.20671e-006 to 1.20671e-006
Heightened Def Con from 1.20671e-006 to 1.20671e-006
Heightened Def Con from 1.20671e-006 to 1.20671e-006
Heightened Def Con from 1.20671e-006 to 1.20671e-006
Heightened Def Con from 1.20671e-006 to 1.20671e-006
Heightened Def Con from 1.20671e-006 to 1.20671e-006
Heightened Def Con from 1.20671e-006 to 1.20671e-006
Heightened Def Con from 1.20671e-006 to 1.20671e-006
Heightened Def Con from 1.20671e-006 to 1.20671e-006
Heightened Def Con from 1.20671e-006 to 1.20671e-006
Heightened Def Con from 1.20671e-006 to 1.20671e-006
Heightened Def Con from 1.20671e-006 to 1.20671e-006
Heightened Def Con from 1.20671e-006 to 1.20671e-006
Heightened Def Con from 1.20671e-006 to 1.20671e-006
Heightened Def Con from 1.20671e-006 to 1.20671e-006
Heightened Def Con from 1.20671e-006 to 1.20671e-006
Heightened Def Con from 1.20671e-006 to 1.20671e-006
Heightened Def Con from 1.20671e-006 to 1.20671e-006
Heightened Def Con from 1.20671e-006 to 1.20671e-006
Heightened Def Con from 1.20671e-006 to 1.20671e-006
Heightened Def Con from 1.20671e-006 to 1.20671e-006
Heightened Def Con from 1.20671e-006 to 1.20671e-006
Heightened Def Con from 1.20671e-006 to 1.20671e-006
Heightened Def Con from 1.20671e-006 to 1.20671e-006
Heightened Def Con from 1.20671e-006 to 1.20671e-006
Heightened Def Con from 1.20671e-006 to 1.20671e-006
Heightened Def Con from 1.20671e-006 +++++++++++++++++++++to 1.20673e-006
Heightened Def Con from 1.20673e-006 +++++++++++++++++++++to 1.20735e-006
Heightened Def Con from 1.20735e-006 +++++++++++++++++++++to 1.20948e-006
Heightened Def Con from 1.20948e-006 +++++++++++++++++++++to 1.20985e-006
Heightened Def Con from 1.20985e-006 +++++++++++++++++++++to 1.20987e-006
Heightened Def Con from 1.20987e-006 +++++++++++++++++++++to 1.21024e-006
Heightened Def Con from 1.21024e-006 +++++++++++++++++++++to 1.21062e-006
Heightened Def Con from 1.21062e-006 +++++++++++++++++++++to 1.21099e-006
Heightened Def Con from 1.21099e-006 +++++++++++++++++++++to 1.21113e-006
Heightened Def Con from 1.21113e-006 +++++++++++++++++++++to 1.21115e-006
Heightened Def Con from 1.21115e-006 +++++++++++++++++++++to 1.21116e-006
Heightened Def Con from 1.21116e-006 +++++++++++++++++++++to 1.21118e-006
Heightened Def Con from 1.21118e-006 +++++++++++++++++++++to 1.2112e-006
Heightened Def Con from 1.2112e-006 +++++++++++++++++++++to 1.21121e-006
Heightened Def Con from 1.21121e-006 +++++++++++++++++++++to 1.21123e-006
Heightened Def Con from 1.21123e-006 +++++++++++++++++++++to 1.2116e-006
Heightened Def Con from 1.2116e-006 +++++++++++to 1.2116e-006
Heightened Def Con from 1.39101e-006 to 1.39101e-006
Heightened Def Con from 1.39101e-006 to 1.39101e-006
Heightened Def Con from 1.39101e-006 to 1.39101e-006
Heightened Def Con from 1.39101e-006 to 1.39101e-006
Heightened Def Con from 1.39101e-006 to 1.39101e-006
Heightened Def Con from 1.39101e-006 to 1.39101e-006
Heightened Def Con from 1.39101e-006 to 1.39101e-006
Heightened Def Con from 1.39101e-006 to 1.39101e-006
Heightened Def Con from 1.39101e-006 to 1.39101e-006
Heightened Def Con from 1.39101e-006 to 1.39101e-006
Heightened Def Con from 1.39101e-006 to 1.39101e-006
Heightened Def Con from 1.39101e-006 to 1.39101e-006
Heightened Def Con from 1.39101e-006 to 1.39101e-006
Heightened Def Con from 1.39101e-006 to 1.39101e-006
Heightened Def Con from 1.39101e-006 to 1.39101e-006
Heightened Def Con from 1.39101e-006 to 1.39101e-006
Heightened Def Con from 1.39101e-006 to 1.39101e-006
[...]
Heightened Def Con from 1.39101e-006 to 1.39101e-006
Heightened Def Con from 1.39101e-006 to 1.39101e-006
Heightened Def Con from 1.39101e-006 to 1.39101e-006
Heightened Def Con from 1.39101e-006 to 1.39101e-006
Heightened Def Con from 1.39101e-006 to 1.39101e-006
Heightened Def Con from 1.39101e-006 to 1.39101e-006
Heightened Def Con from 1.39101e-006 to 1.39101e-006
Heightened Def Con from 1.39101e-006 to 1.39101e-006
Heightened Def Con from 1.39101e-006 to 1.39101e-006
Heightened Def Con from 1.39101e-006 to 1.39101e-006
Heightened Def Con from 1.39101e-006 to 1.39101e-006
Heightened Def Con from 1.39101e-006 to 1.39101e-006
Heightened Def Con from 1.39101e-006 to 1.39101e-006
Heightened Def Con from 1.39101e-006 to 1.39101e-006
Heightened Def Con from 1.39101e-006 to 1.39101e-006
Heightened Def Con from 1.39101e-006 to 1.39101e-006
Heightened Def Con from 1.39101e-006 to 1.39101e-006
Heightened Def Con from 1.39101e-006 to 1.39101e-006
Heightened Def Con from 1.39101e-006 to 1.39101e-006
Heightened Def Con from 1.39101e-006 to 1.39101e-006
Heightened Def Con from 1.39101e-006 to 1.39101e-006
Heightened Def Con from 1.39101e-006 to 1.39101e-006
Heightened Def Con from 1.39101e-006 to 1.39101e-006
Heightened Def Con from 1.39101e-006 to 1.39101e-006
Heightened Def Con from 1.39101e-006 to 1.39101e-006
Heightened Def Con from 1.39101e-006 to 1.39101e-006
Heightened Def Con from 1.39101e-006 to 1.39101e-006
Heightened Def Con from 1.39101e-006 to 1.39101e-006
Heightened Def Con from 1.39101e-006 to 1.39101e-006
Heightened Def Con from 1.39101e-006 to 1.39101e-006
Heightened Def Con from 1.39101e-006 to 1.39101e-006
Heightened Def Con from 1.39101e-006 to 1.39101e-006
Heightened Def Con from 1.39101e-006 to 1.39101e-006
Heightened Def Con from 1.39101e-006 to 1.39101e-006
Heightened Def Con from 1.39101e-006 to 1.39101e-006
Heightened Def Con from 1.39101e-006 to 1.39101e-006
Heightened Def Con from 1.39101e-006 to 1.39101e-006
Heightened Def Con from 1.39101e-006 to 1.39101e-006
Heightened Def Con from 1.39101e-006 to 1.39101e-006
Heightened Def Con from 1.39101e-006 to 1.39101e-006
Heightened Def Con from 1.39101e-006 to 1.39101e-006
Heightened Def Con from 1.39101e-006 to 1.39101e-006
Heightened Def Con from 1.39101e-006 to 1.39101e-006
Heightened Def Con from 1.39101e-006 to 1.39101e-006
Heightened Def Con from 1.39101e-006 to 1.39101e-006
Heightened Def Con from 1.39101e-006 to 1.39101e-006
Heightened Def Con from 1.39101e-006 to 1.39101e-006
Heightened Def Con from 1.39101e-006 to 1.39101e-006
Heightened Def Con from 1.39101e-006 to 1.39101e-006
Heightened Def Con from 1.39101e-006 to 1.39101e-006
Heightened Def Con from 1.39101e-006 to 1.39101e-006
Heightened Def Con from 1.39101e-006 to 1.39101e-006
Heightened Def Con from 1.39101e-006 to 1.39101e-006
Heightened Def Con from 1.39101e-006 to 1.39101e-006
Heightened Def Con from 1.39101e-006 to 1.39101e-006
Heightened Def Con from 1.39101e-006 to 1.39101e-006
Heightened Def Con from 1.39101e-006 to 1.39101e-006
Heightened Def Con from 1.39101e-006 to 1.39101e-006
Heightened Def Con from 1.39101e-006 to 1.39101e-006
Heightened Def Con from 1.39101e-006 to 1.39101e-006
Heightened Def Con from 1.39101e-006 to 1.39101e-006
Heightened Def Con from 1.39101e-006 to 1.39101e-006
Heightened Def Con from 1.39101e-006 to 1.39101e-006
Heightened Def Con from 1.39101e-006 to 1.39101e-006
Heightened Def Con from 1.39101e-006 to 1.39101e-006
Heightened Def Con from 1.39101e-006 to 1.39101e-006
Heightened Def Con from 1.39101e-006 to 1.39101e-006
Heightened Def Con from 1.39101e-006 to 1.39101e-006
Heightened Def Con from 1.39101e-006 to 1.39101e-006
Heightened Def Con from 1.39101e-006 to 1.39101e-006
Heightened Def Con from 1.39101e-006 to 1.39101e-006
Heightened Def Con from 1.39101e-006 to 1.39101e-006
Heightened Def Con from 1.39101e-006 to 1.39101e-006
Heightened Def Con from 1.39101e-006 to 1.39101e-006
Heightened Def Con from 1.39101e-006 to 1.39101e-006
Heightened Def Con from 1.39101e-006 to 1.39101e-006
Heightened Def Con from 1.39101e-006 to 1.39101e-006
Heightened Def Con from 1.39101e-006 to 1.39101e-006
Heightened Def Con from 1.39101e-006 to 1.39101e-006
Heightened Def Con from 1.39101e-006 to 1.39101e-006
Heightened Def Con from 1.39101e-006 to 1.39101e-006
Heightened Def Con from 1.39101e-006 to 1.39101e-006
Heightened Def Con from 1.39101e-006 to 1.39101e-006
Heightened Def Con from 1.39101e-006 to 1.39101e-006
Heightened Def Con from 1.39101e-006 to 1.39101e-006
Heightened Def Con from 1.39101e-006 to 1.39101e-006
Heightened Def Con from 1.39101e-006 to 1.39101e-006
Heightened Def Con from 1.39101e-006 to 1.39101e-006
Heightened Def Con from 1.39101e-006 to 1.39101e-006
Heightened Def Con from 1.39101e-006 to 1.39101e-006
Heightened Def Con from 1.39101e-006 to 1.39101e-006
Heightened Def Con from 1.39101e-006 to 1.39101e-006
Heightened Def Con from 1.39101e-006 to 1.39101e-006
Heightened Def Con from 1.39101e-006 to 1.39101e-006
Heightened Def Con from 1.39101e-006 to 1.39101e-006
Heightened Def Con from 1.39101e-006 to 1.39101e-006
Heightened Def Con from 1.39101e-006 to 1.39101e-006
Heightened Def Con from 1.39101e-006 to 1.39101e-006
Heightened Def Con from 1.39101e-006 to 1.39101e-006
Heightened Def Con from 1.39101e-006 to 1.39101e-006
Heightened Def Con from 1.39101e-006 to 1.39101e-006
Heightened Def Con from 1.39101e-006 to 1.39101e-006
Heightened Def Con from 1.39101e-006 to 1.39101e-006
Heightened Def Con from 1.39101e-006 to 1.39101e-006
Heightened Def Con from 1.39101e-006 to 1.39101e-006
Heightened Def Con from 1.39101e-006 to 1.39101e-006
Heightened Def Con from 1.39101e-006 to 1.39101e-006
Heightened Def Con from 1.39101e-006 to 1.39101e-006
Heightened Def Con from 1.39101e-006 to 1.39101e-006
Heightened Def Con from 1.39101e-006 to 1.39101e-006
Heightened Def Con from 1.39101e-006 to 1.39101e-006
Heightened Def Con from 1.39101e-006 to 1.39101e-006
Heightened Def Con from 1.39101e-006 to 1.39101e-006
Heightened Def Con from 1.39101e-006 to 1.39101e-006
Heightened Def Con from 1.39101e-006 to 1.39101e-006
Heightened Def Con from 1.39101e-006 to 1.39101e-006
Heightened Def Con from 1.39101e-006 to 1.39101e-006
Heightened Def Con from 1.39101e-006 to 1.39101e-006
Heightened Def Con from 1.39101e-006 to 1.39101e-006
Heightened Def Con from 1.39101e-006 to 1.39101e-006
Heightened Def Con from 1.39101e-006 to 1.39101e-006
Heightened Def Con from 1.39101e-006 to 1.39101e-006
Heightened Def Con from 1.39101e-006 to 1.39101e-006
Heightened Def Con from 1.39101e-006 to 1.39101e-006
Heightened Def Con from 1.39101e-006 to 1.39101e-006
Heightened Def Con from 1.39101e-006 to 1.39101e-006
Heightened Def Con from 1.39101e-006 to 1.39101e-006
Heightened Def Con from 1.39101e-006 to 1.39101e-006
Heightened Def Con from 1.39101e-006 to 1.39101e-006
Heightened Def Con from 1.39101e-006 to 1.39101e-006
Heightened Def Con from 1.39101e-006 to 1.39101e-006
Heightened Def Con from 1.39101e-006 to 1.39101e-006
Heightened Def Con from 1.39101e-006 to 1.39101e-006
Heightened Def Con from 1.39101e-006 to 1.39101e-006
Heightened Def Con from 1.39101e-006 to 1.39101e-006
Heightened Def Con from 1.39101e-006 to 1.39101e-006
Heightened Def Con from 1.39101e-006 to 1.39101e-006
Heightened Def Con from 1.39101e-006 to 1.39101e-006
Heightened Def Con from 1.39101e-006 to 1.39101e-006
Heightened Def Con from 1.39101e-006 to 1.39101e-006
Heightened Def Con from 1.39101e-006 to 1.39101e-006
Heightened Def Con from 1.39101e-006 to 1.39101e-006
Heightened Def Con from 1.39101e-006 to 1.39101e-006
Heightened Def Con from 1.39101e-006 to 1.39101e-006
Heightened Def Con from 1.39101e-006 to 1.39101e-006
Heightened Def Con from 1.39101e-006 to 1.39101e-006
Heightened Def Con from 1.39101e-006 to 1.39101e-006
Heightened Def Con from 1.39101e-006 to 1.39101e-006
Heightened Def Con from 1.39101e-006 to 1.39101e-006
Heightened Def Con from 1.39101e-006 to 1.39101e-006
Heightened Def Con from 1.39101e-006 to 1.39101e-006
Heightened Def Con from 1.39101e-006 to 1.39101e-006
Heightened Def Con from 1.39101e-006 to 1.39101e-006
Heightened Def Con from 1.39101e-006 to 1.39101e-006
Heightened Def Con from 1.39101e-006 to 1.39101e-006
Heightened Def Con from 1.39101e-006 to 1.39101e-006
Heightened Def Con from 1.39101e-006 to 1.39101e-006
Heightened Def Con from 1.39101e-006 to 1.39101e-006
Heightened Def Con from 1.39101e-006 to 1.39101e-006
Heightened Def Con from 1.39101e-006 to 1.39101e-006
Heightened Def Con from 1.39101e-006 to 1.39101e-006
Heightened Def Con from 1.39101e-006 to 1.39101e-006
Heightened Def Con from 1.39101e-006 to 1.39101e-006
Heightened Def Con from 1.39101e-006 to 1.39101e-006
Heightened Def Con from 1.39101e-006 to 1.39101e-006
Heightened Def Con from 1.39101e-006 to 1.39101e-006
Heightened Def Con from 1.39101e-006 to 1.39101e-006
Heightened Def Con from 1.39101e-006 to 1.39101e-006
Heightened Def Con from 1.39101e-006 to 1.39101e-006
Heightened Def Con from 1.39101e-006 to 1.39101e-006
Heightened Def Con from 1.39101e-006 to 1.39101e-006
Heightened Def Con from 1.39101e-006 to 1.39101e-006
Heightened Def Con from 1.39101e-006 to 1.39101e-006
Heightened Def Con from 1.39101e-006 to 1.39101e-006
Heightened Def Con from 1.39101e-006 to 1.39101e-006
Heightened Def Con from 1.39101e-006 to 1.39101e-006
Heightened Def Con from 1.39101e-006 to 1.39101e-006
Heightened Def Con from 1.39101e-006 to 1.39101e-006
Heightened Def Con from 1.39101e-006 to 1.39101e-006
Heightened Def Con from 1.39101e-006 to 1.39101e-006
Heightened Def Con from 1.39101e-006 to 1.39101e-006
Heightened Def Con from 1.39101e-006 to 1.39101e-006
Heightened Def Con from 1.39101e-006 to 1.39101e-006
Heightened Def Con from 1.39101e-006 to 1.39101e-006
Heightened Def Con from 1.39101e-006 to 1.39101e-006
Heightened Def Con from 1.39101e-006 to 1.39101e-006
Heightened Def Con from 1.39101e-006 to 1.39101e-006
Heightened Def Con from 1.39101e-006 to 1.39101e-006
Heightened Def Con from 1.39101e-006 to 1.39101e-006
Heightened Def Con from 1.39101e-006 to 1.39101e-006
Heightened Def Con from 1.39101e-006 to 1.39101e-006
Heightened Def Con from 1.39101e-006 to 1.39101e-006
Heightened Def Con from 1.39101e-006 to 1.39101e-006
Heightened Def Con from 1.39101e-006 to 1.39101e-006
Heightened Def Con from 1.39101e-006 to 1.39101e-006
Heightened Def Con from 1.39101e-006 to 1.39101e-006
Heightened Def Con from 1.39101e-006 to 1.39101e-006
Heightened Def Con from 1.39101e-006 to 1.39101e-006
Heightened Def Con from 1.39101e-006 to 1.39101e-006
Heightened Def Con from 1.39101e-006 to 1.39101e-006
Heightened Def Con from 1.39101e-006 to 1.39101e-006
Heightened Def Con from 1.39101e-006 to 1.39101e-006
Heightened Def Con from 1.39101e-006 to 1.39101e-006
Heightened Def Con from 1.39101e-006 to 1.39101e-006
Heightened Def Con from 1.39101e-006 to 1.39101e-006
Heightened Def Con from 1.39101e-006 to 1.39101e-006
Heightened Def Con from 1.39101e-006 to 1.39101e-006
Heightened Def Con from 1.39101e-006 to 1.39101e-006
Heightened Def Con from 1.39101e-006 to 1.39101e-006
Heightened Def Con from 1.39101e-006 to 1.39101e-006
Heightened Def Con from 1.39101e-006 to 1.39101e-006
Heightened Def Con from 1.39101e-006 to 1.39101e-006
Heightened Def Con from 1.39101e-006 to 1.39101e-006
Heightened Def Con from 1.39101e-006 to 1.39101e-006
Heightened Def Con from 1.39101e-006 to 1.39101e-006
Heightened Def Con from 1.39101e-006 to 1.39101e-006
Heightened Def Con from 1.39101e-006 to 1.39101e-006
Heightened Def Con from 1.39101e-006 to 1.39101e-006
Heightened Def Con from 1.39101e-006 to 1.39101e-006
Heightened Def Con from 1.39101e-006 to 1.39101e-006
Heightened Def Con from 1.39101e-006 to 1.39101e-006
Heightened Def Con from 1.39101e-006 to 1.39101e-006
Heightened Def Con from 1.39101e-006 to 1.39101e-006
Heightened Def Con from 1.39101e-006 to 1.39101e-006
Heightened Def Con from 1.39101e-006 to 1.39101e-006
Heightened Def Con from 1.39101e-006 to 1.39101e-006
Heightened Def Con from 1.39101e-006 to 1.39101e-006
Heightened Def Con from 1.39101e-006 to 1.39101e-006
Heightened Def Con from 1.39101e-006 to 1.39101e-006
Heightened Def Con from 1.39101e-006 to 1.39101e-006
Heightened Def Con from 1.39101e-006 to 1.39101e-006
Heightened Def Con from 1.39101e-006 to 1.39101e-006
Heightened Def Con from 1.39101e-006 to 1.39101e-006
Heightened Def Con from 1.39101e-006 to 1.39101e-006
Heightened Def Con from 1.39101e-006 to 1.39101e-006
Heightened Def Con from 1.39101e-006 to 1.39101e-006
Heightened Def Con from 1.39101e-006 to 1.39101e-006
Heightened Def Con from 1.39101e-006 to 1.39101e-006
Heightened Def Con from 1.39101e-006 to 1.39101e-006
Heightened Def Con from 1.39101e-006 to 1.39101e-006
Heightened Def Con from 1.39101e-006 to 1.39101e-006
Heightened Def Con from 1.39101e-006 to 1.39101e-006
Heightened Def Con from 1.39101e-006 to 1.39101e-006
Heightened Def Con from 1.39101e-006 to 1.39101e-006
Heightened Def Con from 1.39101e-006 to 1.39101e-006
Heightened Def Con from 1.39101e-006 to 1.39101e-006
Heightened Def Con from 1.39101e-006 to 1.39101e-006
Heightened Def Con from 1.39101e-006 to 1.39101e-006
Heightened Def Con from 1.39101e-006 to 1.39101e-006
Heightened Def Con from 1.39101e-006 to 1.39101e-006
Heightened Def Con from 1.39101e-006 to 1.39101e-006
Heightened Def Con from 1.39101e-006 to 1.39101e-006
Heightened Def Con from 1.39101e-006 to 1.39101e-006
Heightened Def Con from 1.39101e-006 to 1.39101e-006
Heightened Def Con from 1.39101e-006 to 1.39101e-006
Heightened Def Con from 1.39101e-006 to 1.39101e-006
Heightened Def Con from 1.39101e-006 to 1.39101e-006
Heightened Def Con from 1.39101e-006 to 1.39101e-006
Heightened Def Con from 1.39101e-006 to 1.39101e-006
Heightened Def Con from 1.39101e-006 to 1.39101e-006
Heightened Def Con from 1.39101e-006 to 1.39101e-006
Heightened Def Con from 1.39101e-006 to 1.39101e-006
Heightened Def Con from 1.39101e-006 to 1.39101e-006
Heightened Def Con from 1.39101e-006 to 1.39101e-006
Heightened Def Con from 1.39101e-006 ++to 1.39101e-006
Heightened Def Con from 1.39101e-006 to 1.39101e-006
Heightened Def Con from 1.39101e-006 to 1.39101e-006
Heightened Def Con from 1.39101e-006 to 1.39101e-006
Heightened Def Con from 1.39101e-006 to 1.39101e-006
Heightened Def Con from 1.39101e-006 to 1.39101e-006
Heightened Def Con from 1.39101e-006 to 1.39101e-006
Heightened Def Con from 1.39101e-006 to 1.39101e-006
Heightened Def Con from 1.39101e-006 to 1.39101e-006
Heightened Def Con from 1.39101e-006 to 1.39101e-006
Heightened Def Con from 1.39101e-006 to 1.39101e-006
Heightened Def Con from 1.39101e-006 to 1.39101e-006
Heightened Def Con from 1.39101e-006 to 1.39101e-006
Heightened Def Con from 1.39101e-006 to 1.39101e-006
Heightened Def Con from 1.39101e-006 to 1.39101e-006
Heightened Def Con from 1.39101e-006 to 1.39101e-006
Heightened Def Con from 1.39101e-006 to 1.39101e-006
Heightened Def Con from 1.39101e-006 to 1.39101e-006
Heightened Def Con from 1.39101e-006 to 1.39101e-006
Heightened Def Con from 1.39101e-006 to 1.39101e-006
Heightened Def Con from 1.39101e-006 to 1.39101e-006
Heightened Def Con from 1.39101e-006 to 1.39101e-006
Heightened Def Con from 1.39101e-006 to 1.39101e-006
Heightened Def Con from 1.39101e-006 to 1.39101e-006
Heightened Def Con from 1.39101e-006 to 1.39101e-006
Heightened Def Con from 1.39101e-006 to 1.39101e-006
Heightened Def Con from 1.39101e-006 to 1.39101e-006
Heightened Def Con from 1.39101e-006 to 1.39101e-006
Heightened Def Con from 1.39101e-006 to 1.39101e-006
Heightened Def Con from 1.39101e-006 to 1.39101e-006
Heightened Def Con from 1.39101e-006 to 1.39101e-006
Heightened Def Con from 1.39101e-006 to 1.39101e-006
Heightened Def Con from 1.39101e-006 to 1.39101e-006
Heightened Def Con from 1.39101e-006 to 1.39101e-006
Heightened Def Con from 1.39101e-006 to 1.39101e-006
Heightened Def Con from 1.39101e-006 to 1.39101e-006
Heightened Def Con from 1.39101e-006 to 1.39101e-006
Heightened Def Con from 1.39101e-006 to 1.39101e-006
Heightened Def Con from 1.39101e-006 to 1.39101e-006
Heightened Def Con from 1.39101e-006 to 1.39101e-006
Heightened Def Con from 1.39101e-006 to 1.39101e-006
Heightened Def Con from 1.39101e-006 to 1.39101e-006
Heightened Def Con from 1.39101e-006 to 1.39101e-006
Heightened Def Con from 1.39101e-006 to 1.39101e-006
Heightened Def Con from 1.39101e-006 to 1.39101e-006
Heightened Def Con from 1.39101e-006 to 1.39101e-006
Heightened Def Con from 1.39101e-006 to 1.39101e-006
Heightened Def Con from 1.39101e-006 to 1.39101e-006
Heightened Def Con from 1.39101e-006 to 1.39101e-006
Heightened Def Con from 1.39101e-006 to 1.39101e-006
Heightened Def Con from 1.39101e-006 to 1.39101e-006
Heightened Def Con from 1.39101e-006 to 1.39101e-006
Heightened Def Con from 1.39101e-006 to 1.39101e-006
Heightened Def Con from 1.39101e-006 to 1.39101e-006
Heightened Def Con from 1.39101e-006 to 1.39101e-006
Heightened Def Con from 1.39101e-006 to 1.39101e-006
Heightened Def Con from 1.39101e-006 to 1.39101e-006
Heightened Def Con from 1.39101e-006 to 1.39101e-006
Heightened Def Con from 1.39101e-006 to 1.39101e-006
Heightened Def Con from 1.39101e-006 to 1.39101e-006
Heightened Def Con from 1.39101e-006 to 1.39101e-006
Heightened Def Con from 1.39101e-006 to 1.39101e-006
Heightened Def Con from 1.39101e-006 to 1.39101e-006
Heightened Def Con from 1.39101e-006 to 1.39101e-006
Heightened Def Con from 1.39101e-006 to 1.39101e-006
Heightened Def Con from 1.39101e-006 to 1.39101e-006
Heightened Def Con from 1.39101e-006 to 1.39101e-006
Heightened Def Con from 1.39101e-006 to 1.39101e-006
Heightened Def Con from 1.39101e-006 to 1.39101e-006
Heightened Def Con from 1.39101e-006 to 1.39101e-006
Heightened Def Con from 1.39101e-006 to 1.39101e-006
Heightened Def Con from 1.39101e-006 to 1.39101e-006
Heightened Def Con from 1.39101e-006 to 1.39101e-006
Heightened Def Con from 1.39101e-006 to 1.39101e-006
Heightened Def Con from 1.39101e-006 to 1.39101e-006
Heightened Def Con from 1.39101e-006 to 1.39101e-006
Heightened Def Con from 1.39101e-006 to 1.39101e-006
Heightened Def Con from 1.39101e-006 +++++++++++++++++++++to 1.39103e-006
Heightened Def Con from 1.39103e-006 +++++++++++++++++++++to 1.39166e-006
Heightened Def Con from 1.39166e-006 +++++++++++++++++++++to 1.39566e-006
Heightened Def Con from 1.39566e-006 +++++++++++++++++++++to 1.39592e-006
Heightened Def Con from 1.39592e-006 +++++++++++++++++++++to 1.39597e-006
Heightened Def Con from 1.39597e-006 +++++++++++++++++++++to 1.39602e-006
Heightened Def Con from 1.39602e-006 +++++++++++++++++++++to 1.39606e-006
Heightened Def Con from 1.39606e-006 +++++++++++++++++++++to 1.39644e-006
Heightened Def Con from 1.39644e-006 ++++++++++++++++++to 1.39644e-006
Heightened Def Con from 1.39644e-006 ++++++++++++++++++to 1.39645e-006
Heightened Def Con from 1.39645e-006 ++++++++++++++++++to 1.39645e-006
Heightened Def Con from 1.39645e-006 ++++++++++++++++++to 1.39645e-006
Heightened Def Con from 1.39645e-006 ++++++++++++++++++to 1.39645e-006
Heightened Def Con from 1.39645e-006 ++++++++++++++++++to 1.39645e-006
Heightened Def Con from 1.39645e-006 ++++++++++++++++to 1.39646e-006
Heightened Def Con from 1.39646e-006 ++++++to 1.39758e-006

vout_max: MAX(v(vout))=2.24992 FROM 0 TO 0.00032
vout_min: MIN(v(vout))=2.24983 FROM 0 TO 0.00032
vout_vpp: vout_max-vout_min=9.11281e-005
vin_max: MAX(v(vin))=2.2501 FROM 0 TO 0.00032
vin_min: MIN(v(vin))=2.25008 FROM 0 TO 0.00032
vin_vpp: vin_max-vin_min=1.55267e-005
amp_gain: -vout_vpp/vin_vpp=-5.86911


Date: Wed Mar 20 15:02:19 2024
Total elapsed time: 80.678 seconds.

tnom = 27
temp = 27
method = modified trap
totiter = 3495694
traniter = 3495060
tranpoints = 1249469
accept = 1078609
rejected = 174965
matrix size = 253
fillins = 408
solver = Normal
Thread vector: 10.7/7.9[5] 8.5/4.9[5] 1.8/1.4[3] 0.9/1.7[1]  2592/500
Matrix Compiler1: 31.96 KB object code size  16.3/7.4/[1.5]
Matrix Compiler2: 25.36 KB object code size  2.6/5.4/[1.4]

